geometry optimzed in LAMMPS
_audit_creation_date              2020-11-30 
_audit_creation_method            'lammps2cif' 
_symmetry_space_group_name_H-M    'P1' 
_symmetry_Int_Tables_number       1 
_symmetry_cell_setting            triclinic 
loop_ 
_symmetry_equiv_pos_as_xyz 
  x,y,z 
_cell_length_a                    21.76582974 
_cell_length_b                    21.858506249457506 
_cell_length_c                    92.19062711838372 
_cell_angle_alpha                 89.87297408266981 
_cell_angle_beta                  89.24577359556885 
_cell_angle_gamma                 89.42929744924584 
loop_ 
_atom_site_label 
_atom_site_type_symbol 
_atom_site_fract_x 
_atom_site_fract_y 
_atom_site_fract_z 
_atom_site_charge 
C1          C  0.63572441  0.63846764  0.83853090    -0.02900
C2          C  0.36088263  0.62019465  0.83589867    -0.02900
C3          C  0.64341422  0.92530836  0.83843881    -0.02900
C4          C  0.35605605  0.90959171  0.83825167    -0.02900
C5          C  0.63983450  0.63997602  0.90538860    -0.02900
C6          C  0.35198816  0.62406945  0.90261646    -0.02900
C7          C  0.64186604  0.92484699  0.90306214    -0.02900
C8          C  0.35337986  0.90855409  0.90553762    -0.02900
In9        In  0.36768326  0.93081229  0.47058417     1.36900
C10         C  0.48933702  0.92920404  0.46982507     0.77200
O11         O  0.36228271  0.02368368  0.48080586    -0.61300
O12         O  0.34753503  0.94750766  0.49462826    -0.52200
C13         C  0.29929946  0.99379431  0.45159291     0.69800
O14         O  0.35710706  0.99118887  0.45102914    -0.47100
C15         C  0.34926057  0.80967000  0.46649384     0.74500
O16         O  0.45759729  0.94588064  0.45917258    -0.58900
O17         O  0.32348760  0.83873915  0.47680026    -0.49000
O18         O  0.45900521  0.91416730  0.48098271    -0.55400
C19         C  0.35206472  0.00500820  0.49349023     0.84700
O20         O  0.27676358  0.96085423  0.46158642    -0.57200
O21         O  0.37940277  0.84316413  0.45793736    -0.60500
In22       In  0.36537075  0.12753473  0.52747986     1.36900
C23         C  0.48656889  0.12211070  0.52646713     0.77200
O24         O  0.36200390  0.03103597  0.51861557    -0.61300
O25         O  0.34231841  0.10449454  0.50433021    -0.52200
C26         C  0.28961972  0.08388604  0.54776150     0.69800
O27         O  0.34722632  0.08077680  0.54895468    -0.47100
C28         C  0.35119759  0.24983969  0.52829552     0.74500
O29         O  0.45620305  0.10417267  0.53739705    -0.58900
O30         O  0.32685306  0.21731374  0.51866471    -0.49000
O31         O  0.45509020  0.14306683  0.51621307    -0.55400
C32         C  0.35045127  0.04756138  0.50585344     0.84700
O33         O  0.27134323  0.11259715  0.53668277    -0.57200
O34         O  0.37902332  0.21962915  0.53789940    -0.60500
In35       In  0.37145701  0.61905476  0.46452596     1.36900
C36         C  0.49362337  0.61284996  0.46474726     0.77200
O37         O  0.38517706  0.71530794  0.45600885    -0.61300
O38         O  0.32140475  0.70543483  0.47318206    -0.52200
C39         C  0.30792967  0.56440536  0.44329361     0.69800
O40         O  0.36379447  0.57797028  0.44207317    -0.47100
C41         C  0.35705101  0.54531716  0.48763713     0.74500
O42         O  0.46367701  0.60602171  0.45328581    -0.58900
O43         O  0.35014545  0.60265109  0.48823913    -0.49000
O44         O  0.46138317  0.62245634  0.47592634    -0.55400
C45         C  0.35035489  0.74187533  0.46503491     0.84700
O46         O  0.28389373  0.58185851  0.45516132    -0.57200
O47         O  0.36766955  0.52498138  0.47505137    -0.60500
In48       In  0.37305565  0.43811074  0.52482188     1.36900
C49         C  0.49567335  0.43519426  0.52527264     0.77200
O50         O  0.38260916  0.34825080  0.53673645    -0.61300
O51         O  0.32776089  0.34920902  0.51795723    -0.52200
C52         C  0.30591638  0.50205501  0.54431975     0.69800
O53         O  0.36363518  0.50394866  0.54334544    -0.47100
C54         C  0.35806903  0.50650098  0.50074655     0.74500
O55         O  0.46357921  0.45070972  0.53615069    -0.58900
O56         O  0.35368643  0.44899381  0.50062027    -0.49000
O57         O  0.46531406  0.42156965  0.51424891    -0.55400
C58         C  0.35236300  0.31752464  0.52781806     0.84700
O59         O  0.28159718  0.46421588  0.53581120    -0.57200
O60         O  0.36730058  0.52846714  0.51309269    -0.60500
In61       In  0.67807707  0.92413854  0.46795045     1.36900
C62         C  0.55631698  0.92707451  0.46920800     0.77200
O63         O  0.66603599  0.83351216  0.45705810    -0.61300
O64         O  0.72342497  0.83496772  0.47541179    -0.52200
C65         C  0.74185335  0.97796195  0.44682766     0.69800
O66         O  0.68421827  0.97397751  0.44687992    -0.47100
C67         C  0.69517008  0.00183964  0.48995229     0.74500
O68         O  0.58631616  0.94167623  0.45798058    -0.58900
O69         O  0.70524605  0.94503756  0.49115771    -0.49000
O70         O  0.58840147  0.91032579  0.47979460    -0.55400
C71         C  0.69769206  0.80309873  0.46587862     0.84700
O72         O  0.76790410  0.95048191  0.45719111    -0.57200
O73         O  0.67998646  0.01872205  0.47744024    -0.60500
In74       In  0.67513879  0.11997525  0.52497784     1.36900
C75         C  0.55337295  0.11982506  0.52570659     0.77200
O76         O  0.66317889  0.21160248  0.53522270    -0.61300
O77         O  0.72755709  0.20527217  0.51785979    -0.52200
C78         C  0.72513280  0.06884887  0.54791197     0.69800
O79         O  0.66829728  0.06967186  0.54560781    -0.47100
C80         C  0.69523076  0.04472642  0.50226211     0.74500
O81         O  0.58518382  0.09499033  0.53538736    -0.58900
O82         O  0.68253313  0.10068876  0.50087969    -0.49000
O83         O  0.58359552  0.14334154  0.51543169    -0.55400
C84         C  0.69898010  0.23936122  0.52675917     0.84700
O85         O  0.75791913  0.09683708  0.53861229    -0.57200
O86         O  0.70281379  0.02805167  0.51517213    -0.60500
In87       In  0.68242194  0.61440772  0.46667483     1.36900
C88         C  0.56061402  0.61128420  0.46525920     0.77200
O89         O  0.69967305  0.52237592  0.47695618    -0.61300
O90         O  0.69553163  0.60006544  0.49068028    -0.52200
C91         C  0.75148591  0.56167544  0.44636557     0.69800
O92         O  0.69440360  0.55386207  0.44753738    -0.47100
C93         C  0.69891163  0.73567678  0.46555912     0.74500
O94         O  0.59446733  0.60607364  0.45413770    -0.58900
O95         O  0.72517882  0.70252555  0.47488907    -0.49000
O96         O  0.58889173  0.61657037  0.47698136    -0.55400
C97         C  0.70036696  0.54266743  0.48971099     0.84700
O98         O  0.77409993  0.59739571  0.45560655    -0.57200
O99         O  0.66889121  0.70641890  0.45635597    -0.60500
In100      In  0.68529462  0.42763434  0.52501381     1.36900
C101        C  0.56295514  0.43274266  0.52533188     0.77200
O102        O  0.68816192  0.52131842  0.51497210    -0.61300
O103        O  0.70950636  0.44513538  0.50151409    -0.52200
C104        C  0.75689933  0.47586985  0.54500836     0.69800
O105        O  0.69909776  0.47683746  0.54581314    -0.47100
C106        C  0.70108789  0.30653561  0.52671309     0.74500
O107        O  0.59431028  0.44776896  0.53613248    -0.58900
O108        O  0.72773423  0.33788259  0.51703720    -0.49000
O109        O  0.59398215  0.41510869  0.51447258    -0.55400
C110        C  0.70097344  0.50220558  0.50241369     0.84700
O111        O  0.77890409  0.44822760  0.53407495    -0.57200
O112        O  0.67080427  0.33743244  0.53586993    -0.60500
In113      In  0.34789022  0.13544213  0.71679415     1.36900
C114        C  0.34296202  0.25610368  0.71681100     0.77200
O115        O  0.25530311  0.11827569  0.72742537    -0.61300
O116        O  0.33344924  0.12123465  0.74085244    -0.52200
C117        C  0.29590370  0.07871172  0.69451466     0.69800
O118        O  0.30349085  0.13556804  0.69499334    -0.47100
C119        C  0.46941152  0.11634054  0.71587369     0.74500
O120        O  0.33274280  0.22517555  0.70564289    -0.58900
O121        O  0.43486072  0.08412774  0.72381071    -0.49000
O122        O  0.35302280  0.22550454  0.72810345    -0.55400
C123        C  0.27588633  0.11698845  0.74013662     0.84700
O124        O  0.31723102  0.05045215  0.70539375    -0.57200
O125        O  0.44146116  0.15294567  0.70774980    -0.60500
In126      In  0.16073625  0.13287841  0.77598835     1.36900
C127        C  0.16133782  0.25488382  0.77505549     0.77200
O128        O  0.25467147  0.13178393  0.76541239    -0.61300
O129        O  0.17904563  0.10565551  0.75265087    -0.52200
C130        C  0.21044299  0.06033432  0.79623959     0.69800
O131        O  0.21086717  0.11792344  0.79697544    -0.47100
C132        C  0.03906208  0.11585032  0.77752006     0.74500
O133        O  0.17949597  0.22519022  0.78596823    -0.58900
O134        O  0.07227540  0.09270693  0.76760498    -0.49000
O135        O  0.14286466  0.22242311  0.76478427    -0.55400
C136        C  0.23578377  0.11653589  0.75309661     0.84700
O137        O  0.18244055  0.03968648  0.78540957    -0.57200
O138        O  0.06845872  0.14371090  0.78711667    -0.60500
In139      In  0.65712586  0.13363148  0.71871645     1.36900
C140        C  0.66148133  0.25454320  0.71770071     0.77200
O141        O  0.56755379  0.15022584  0.70808931    -0.61300
O142        O  0.56791357  0.08872022  0.72599646    -0.52200
C143        C  0.70542231  0.06161650  0.69848262     0.69800
O144        O  0.72076915  0.11673997  0.69999186    -0.47100
C145        C  0.73059234  0.11594978  0.74129103     0.74500
O146        O  0.67397909  0.22185449  0.70679577    -0.58900
O147        O  0.67321263  0.12295640  0.74272221    -0.49000
O148        O  0.64684217  0.22551949  0.72901139    -0.55400
C149        C  0.53674982  0.11677818  0.71654253     0.84700
O150        O  0.66380768  0.04400873  0.70717610    -0.57200
O151        O  0.74947532  0.11244755  0.72837657    -0.60500
In152      In  0.84947574  0.13254582  0.77553869     1.36900
C153        C  0.84553732  0.25401034  0.77600354     0.77200
O154        O  0.93931672  0.14041210  0.78720855    -0.61300
O155        O  0.94066987  0.09509250  0.76692294    -0.52200
C156        C  0.79767067  0.05930830  0.79490320     0.69800
O157        O  0.80397972  0.11589037  0.79685042    -0.47100
C158        C  0.77266479  0.11758685  0.75357798     0.74500
O159        O  0.82368064  0.22207527  0.78619509    -0.58900
O160        O  0.82919507  0.10437000  0.75251044    -0.49000
O161        O  0.86884620  0.22395475  0.76563375    -0.55400
C162        C  0.97132268  0.11554635  0.77735076     0.84700
O163        O  0.82154869  0.03883540  0.78331821    -0.57200
O164        O  0.75560415  0.13666882  0.76585786    -0.60500
In165      In  0.66546235  0.44222183  0.71703432     1.36900
C166        C  0.66327206  0.32116550  0.71742839     0.77200
O167        O  0.75524223  0.43563163  0.72843993    -0.61300
O168        O  0.68018738  0.47404653  0.74026395    -0.52200
C169        C  0.73079509  0.50257678  0.69687216     0.69800
O170        O  0.72650429  0.44531922  0.69731658    -0.47100
C171        C  0.54312150  0.45954259  0.71497955     0.74500
O172        O  0.67603943  0.35107493  0.70609989    -0.58900
O173        O  0.57460768  0.48752602  0.72421244    -0.49000
O174        O  0.65186464  0.35301410  0.72851583    -0.55400
C175        C  0.73597216  0.45754312  0.74026416     0.84700
O176        O  0.69845559  0.53027284  0.70633510    -0.57200
O177        O  0.57469950  0.42848294  0.70609869    -0.60500
In178      In  0.84849933  0.44262491  0.77592393     1.36900
C179        C  0.84501817  0.32090534  0.77614198     0.77200
O180        O  0.75530421  0.46262700  0.76589154    -0.61300
O181        O  0.83274491  0.45177675  0.75201234    -0.52200
C182        C  0.80573304  0.51215804  0.79747459     0.69800
O183        O  0.80432118  0.45448007  0.79777471    -0.47100
C184        C  0.96851768  0.46031660  0.77625397     0.74500
O185        O  0.82045235  0.35254760  0.78609935    -0.58900
O186        O  0.93460952  0.48799899  0.76734238    -0.49000
O187        O  0.87027561  0.35132589  0.76619042    -0.55400
C188        C  0.77548525  0.45902194  0.75305447     0.84700
O189        O  0.83191309  0.53457154  0.78637312    -0.57200
O190        O  0.94049919  0.42829496  0.78551975    -0.60500
In191      In  0.35275587  0.44256288  0.71632903     1.36900
C192        C  0.34539362  0.32235892  0.71660257     0.77200
O193        O  0.44656166  0.42129653  0.70711588    -0.61300
O194        O  0.44094320  0.48899681  0.72352733    -0.52200
C195        C  0.30833715  0.50617580  0.69417974     0.69800
O196        O  0.28913434  0.45386990  0.69755961    -0.47100
C197        C  0.27689086  0.46620630  0.73867355     0.74500
O198        O  0.33877236  0.35317767  0.70516793    -0.58900
O199        O  0.33444553  0.46378657  0.74002369    -0.49000
O200        O  0.35617506  0.35283299  0.72781544    -0.55400
C201        C  0.47513466  0.45784545  0.71507618     0.84700
O202        O  0.35033835  0.52550671  0.70225593    -0.57200
O203        O  0.25888229  0.46326964  0.72579387    -0.60500
In204      In  0.15608277  0.44378191  0.77317048     1.36900
C205        C  0.16086320  0.32188296  0.77429739     0.77200
O206        O  0.06668782  0.43020036  0.78447768    -0.61300
O207        O  0.06631246  0.48454379  0.76533087    -0.52200
C208        C  0.19504266  0.51410904  0.79418688     0.69800
O209        O  0.20338577  0.45705695  0.79377581    -0.47100
C210        C  0.23384732  0.46490023  0.75107874     0.74500
O211        O  0.17978881  0.35507067  0.78440860    -0.58900
O212        O  0.17629788  0.46678189  0.74968246    -0.49000
O213        O  0.14071335  0.35084598  0.76349337    -0.55400
C214        C  0.03556011  0.45992545  0.77544957     0.84700
O215        O  0.16568003  0.53643973  0.78366818    -0.57200
O216        O  0.25148341  0.45571744  0.76385225    -0.60500
C217        C  0.89599759  0.63215633  0.65428323    -0.02900
C218        C  0.18149098  0.65658259  0.65048224    -0.02900
C219        C  0.85728764  0.91117450  0.65727288    -0.02900
C220        C  0.13526914  0.93248895  0.65534723    -0.02900
C221        C  0.16966903  0.67771599  0.58321404    -0.02900
C222        C  0.12563987  0.94255835  0.58648275    -0.02900
C223        C  0.88307892  0.63725063  0.58693673    -0.02900
C224        C  0.85214492  0.91677566  0.58960082    -0.02900
In225      In  0.84103361  0.13384411  0.96586851     1.36900
C226        C  0.96379896  0.12851917  0.96563141     0.77200
O227        O  0.85242971  0.22542843  0.95543431    -0.61300
O228        O  0.79719171  0.22123904  0.97452887    -0.52200
C229        C  0.77285445  0.08289601  0.94546270     0.69800
O230        O  0.83074283  0.08056523  0.94541679    -0.47100
C231        C  0.82334234  0.06109925  0.98881521     0.74500
O232        O  0.93280492  0.11645132  0.95456580    -0.58900
O233        O  0.82525734  0.11853412  0.98982402    -0.49000
O234        O  0.93227152  0.14300503  0.97662614    -0.55400
C235        C  0.82296396  0.25436795  0.96508404     0.84700
O236        O  0.74922220  0.11417968  0.95567476    -0.57200
O237        O  0.82603900  0.04111844  0.97603533    -0.60500
In238      In  0.84036224  0.94610163  0.02415974     1.36900
C239        C  0.96200756  0.94656122  0.02342032     0.77200
O240        O  0.85302946  0.85480734  0.03511263    -0.61300
O241        O  0.79414687  0.85761431  0.01708148    -0.52200
C242        C  0.77698137  0.00189759  0.04508298     0.69800
O243        O  0.83372362  0.99107948  0.04574389    -0.47100
C244        C  0.82400548  0.02061899  0.00152383     0.74500
O245        O  0.93120082  0.96738011  0.03398050    -0.58900
O246        O  0.81400880  0.96391939  0.00085284    -0.49000
O247        O  0.93076979  0.92686151  0.01306063    -0.55400
C248        C  0.82097287  0.82495749  0.02642048     0.84700
O249        O  0.75101278  0.98057944  0.03402724    -0.57200
O250        O  0.83936553  0.03931132  0.01383242    -0.60500
In251      In  0.84084846  0.63585200  0.02430022     1.36900
C252        C  0.96165402  0.62614581  0.02453113     0.77200
O253        O  0.81621136  0.54611149  0.01425955    -0.61300
O254        O  0.83670166  0.61974373  0.00011526    -0.52200
C255        C  0.77764207  0.57713261  0.04449344     0.69800
O256        O  0.83554643  0.57689977  0.04406781    -0.47100
C257        C  0.82097890  0.75728666  0.02650242     0.74500
O258        O  0.92899102  0.61396729  0.03551475    -0.58900
O259        O  0.79316429  0.72492869  0.01740656    -0.49000
O260        O  0.93268140  0.64329038  0.01351687    -0.55400
C261        C  0.82494756  0.56362731  0.00144763     0.84700
O262        O  0.75190676  0.61006683  0.03496254    -0.57200
O263        O  0.85396105  0.72702248  0.03508690    -0.60500
In264      In  0.84576226  0.44032567  0.96813382     1.36900
C265        C  0.96772512  0.43525278  0.96832017     0.77200
O266        O  0.84829798  0.53547368  0.97705037    -0.61300
O267        O  0.81353558  0.46483977  0.99067955    -0.52200
C268        C  0.77491555  0.48998209  0.94834117     0.69800
O269        O  0.83273046  0.49233690  0.94776809    -0.47100
C270        C  0.82471414  0.32128531  0.96583145     0.74500
O271        O  0.93791767  0.45208414  0.95735343    -0.58900
O272        O  0.80546663  0.35183081  0.97661972    -0.49000
O273        O  0.93528614  0.42086395  0.97919937    -0.55400
C274        C  0.82737592  0.52059660  0.98933005     0.84700
O275        O  0.75290404  0.46022919  0.95890974    -0.57200
O276        O  0.85113653  0.35216914  0.95609645    -0.60500
In277      In  0.14994992  0.93293930  0.02400109     1.36900
C278        C  0.02887729  0.94345234  0.02344420     0.77200
O279        O  0.15900799  0.02673039  0.01446475    -0.61300
O280        O  0.17096715  0.95042663  0.00039297    -0.52200
C281        C  0.21677203  0.97776797  0.04519181     0.69800
O282        O  0.16041438  0.96644121  0.04664129    -0.47100
C283        C  0.16726856  0.81234028  0.02596204     0.74500
O284        O  0.06018964  0.96443908  0.03365762    -0.58900
O285        O  0.19746682  0.84414142  0.01696678    -0.49000
O286        O  0.05941754  0.91783311  0.01344081    -0.55400
C287        C  0.16714741  0.00785299  0.00168483     0.84700
O288        O  0.23974491  0.96313948  0.03300792    -0.57200
O289        O  0.13176713  0.84250256  0.03414758    -0.60500
In290      In  0.15372984  0.12573776  0.96697205     1.36900
C291        C  0.03113782  0.12655972  0.96589982     0.77200
O292        O  0.15934054  0.03115468  0.97647160    -0.61300
O293        O  0.17002473  0.10683186  0.99059624    -0.52200
C294        C  0.22936704  0.07603108  0.94754142     0.69800
O295        O  0.17187076  0.07776833  0.94611438    -0.47100
C296        C  0.17523630  0.24481811  0.96612067     0.74500
O297        O  0.06429125  0.11160343  0.95514895    -0.58900
O298        O  0.19624415  0.21127087  0.97606573    -0.49000
O299        O  0.06045674  0.14032563  0.97708155    -0.55400
C300        C  0.16695263  0.04954478  0.98924792     0.84700
O301        O  0.24917245  0.10279007  0.95863789    -0.57200
O302        O  0.14770470  0.21685319  0.95627139    -0.60500
In303      In  0.14925069  0.62504995  0.02540819     1.36900
C304        C  0.02826538  0.62273849  0.02463388     0.77200
O305        O  0.13312067  0.71703221  0.03505133    -0.61300
O306        O  0.19806249  0.71145820  0.01777191    -0.52200
C307        C  0.21062839  0.57564765  0.04722857     0.69800
O308        O  0.15399884  0.58749211  0.04796287    -0.47100
C309        C  0.17000684  0.54847509  0.00334389     0.74500
O310        O  0.05779123  0.60152174  0.03518438    -0.58900
O311        O  0.17139889  0.60583603  0.00189422    -0.49000
O312        O  0.06051742  0.64274623  0.01428159    -0.55400
C313        C  0.16782154  0.74525899  0.02641331     0.84700
O314        O  0.23631674  0.59384501  0.03563526    -0.57200
O315        O  0.16144394  0.53022359  0.01616041    -0.60500
In316      In  0.15728082  0.43113333  0.96864978     1.36900
C317        C  0.03491911  0.43310618  0.96841455     0.77200
O318        O  0.14833062  0.34269196  0.95711630    -0.61300
O319        O  0.19914558  0.34216119  0.97664395    -0.52200
C320        C  0.22523860  0.48152452  0.94798927     0.69800
O321        O  0.16752506  0.48533780  0.94861866    -0.47100
C322        C  0.17217961  0.50654806  0.99095152     0.74500
O323        O  0.06725085  0.44659723  0.95747837    -0.58900
O324        O  0.17743588  0.44923847  0.99224829    -0.49000
O325        O  0.06493808  0.41806785  0.97946487    -0.55400
C326        C  0.17615101  0.31159387  0.96649313     0.84700
O327        O  0.24968815  0.44986869  0.95790145    -0.57200
O328        O  0.16376554  0.52500564  0.97820138    -0.60500
C329        C  0.86780503  0.13804967  0.40390539    -0.02900
C330        C  0.88072310  0.41767048  0.40043418    -0.02900
C331        C  0.15675595  0.12263489  0.40581898    -0.02900
C332        C  0.16204674  0.40567333  0.40339437    -0.02900
C333        C  0.15117835  0.12601442  0.33998176    -0.02900
C334        C  0.86274787  0.13341801  0.33703878    -0.02900
C335        C  0.86121836  0.41881036  0.33567733    -0.02900
C336        C  0.14233127  0.41136563  0.33603917    -0.02900
In337      In  0.15680597  0.92147729  0.21404299     1.36900
C338        C  0.15015105  0.80051741  0.21564318     0.77200
O339        O  0.24891680  0.91273176  0.22461707    -0.61300
O340        O  0.18181687  0.96847752  0.23511858    -0.52200
C341        C  0.21145327  0.97614107  0.19142035     0.69800
O342        O  0.21004467  0.91899531  0.19282650    -0.47100
C343        C  0.03534819  0.94708589  0.21380434     0.74500
O344        O  0.16204951  0.82840022  0.20402046    -0.58900
O345        O  0.06895899  0.96083551  0.22430981    -0.49000
O346        O  0.14112500  0.83434503  0.22651343    -0.55400
C347        C  0.23500325  0.94506818  0.23547452     0.84700
O348        O  0.18459628  0.00486714  0.20161549    -0.57200
O349        O  0.06428413  0.92438905  0.20317637    -0.60500
In350      In  0.34297406  0.93363656  0.27196738     1.36900
C351        C  0.33466744  0.81165488  0.27269518     0.77200
O352        O  0.25821156  0.96883016  0.26025195    -0.61300
O353        O  0.32955406  0.92796814  0.24780478    -0.52200
C354        C  0.28778933  0.99459329  0.29348901     0.69800
O355        O  0.28453390  0.93737110  0.29191045    -0.47100
C356        C  0.46315957  0.95690409  0.27475999     0.74500
O357        O  0.31261403  0.84511950  0.28262536    -0.58900
O358        O  0.43085345  0.98408835  0.26542732    -0.49000
O359        O  0.36094955  0.84031446  0.26257423    -0.55400
C360        C  0.27573127  0.94932854  0.24803613     0.84700
O361        O  0.32032819  0.02160916  0.28401325    -0.57200
O362        O  0.43348606  0.92134982  0.28291300    -0.60500
In363      In  0.65196075  0.93878380  0.27398284     1.36900
C364        C  0.65044838  0.81798571  0.27462911     0.77200
O365        O  0.55976963  0.92924748  0.28465086    -0.61300
O366        O  0.56435934  0.98712083  0.26626792    -0.52200
C367        C  0.71291148  0.99486457  0.29456500     0.69800
O368        O  0.71041643  0.93756133  0.29359121    -0.47100
C369        C  0.72612919  0.95582635  0.25112800     0.74500
O370        O  0.65678492  0.84974755  0.28583642    -0.58900
O371        O  0.66853766  0.95290581  0.24999427    -0.49000
O372        O  0.64619528  0.84776883  0.26298146    -0.55400
C373        C  0.53068431  0.95996065  0.27543930     0.84700
O374        O  0.68169424  0.02430530  0.28531621    -0.57200
O375        O  0.74528220  0.95348329  0.26391077    -0.60500
In376      In  0.84488473  0.94070265  0.21631434     1.36900
C377        C  0.83762580  0.81880383  0.21614344     0.77200
O378        O  0.93508617  0.93090987  0.20419918    -0.61300
O379        O  0.93707998  0.97123477  0.22504333    -0.52200
C380        C  0.79384230  0.02005682  0.19798793     0.69800
O381        O  0.79551824  0.96305008  0.19588587    -0.47100
C382        C  0.76802892  0.95606709  0.23858984     0.74500
O383        O  0.82520023  0.85089592  0.20515109    -0.58900
O384        O  0.82501808  0.96558639  0.23960126    -0.49000
O385        O  0.85379921  0.84885190  0.22704973    -0.50600
C386        C  0.96754869  0.95146429  0.21425636     0.84700
O387        O  0.82128129  0.03741344  0.20922205    -0.57200
O388        O  0.75033373  0.94192465  0.22610539    -0.60500
In389      In  0.33649620  0.62269257  0.27405369     1.36900
C390        C  0.33206271  0.74463977  0.27294505     0.77200
O391        O  0.42562588  0.63727242  0.28501419    -0.61300
O392        O  0.42773851  0.57949228  0.26659302    -0.52200
C393        C  0.29161651  0.55759531  0.29605213     0.69800
O394        O  0.29883211  0.61461603  0.29636508    -0.47100
C395        C  0.26001877  0.60084607  0.25235057     0.74500
O396        O  0.30764239  0.71473452  0.28315795    -0.58900
O397        O  0.31771559  0.59829190  0.25079272    -0.49000
O398        O  0.35605543  0.71232309  0.26306930    -0.55400
C399        C  0.45791321  0.60661761  0.27623514     0.84700
O400        O  0.31023523  0.53260477  0.28441591    -0.57200
O401        O  0.24151074  0.61092375  0.26511987    -0.60500
In402      In  0.14265794  0.61299100  0.21774962     1.36900
C403        C  0.14738922  0.73395535  0.21640554     0.77200
O404        O  0.05367907  0.62917348  0.20651092    -0.61300
O405        O  0.05129414  0.57607788  0.22583292    -0.52200
C406        C  0.19283249  0.53839853  0.19826486     0.69800
O407        O  0.20083033  0.59534568  0.19830587    -0.47100
C408        C  0.21797378  0.59847675  0.24006379     0.74500
O409        O  0.15889223  0.70033829  0.20559980    -0.58900
O410        O  0.16036155  0.59400726  0.24148856    -0.49000
O411        O  0.13342343  0.70587032  0.22789979    -0.55400
C412        C  0.02129540  0.60194753  0.21585582     0.84700
O413        O  0.15696547  0.51858376  0.20805541    -0.57200
O414        O  0.23665473  0.60609751  0.22723868    -0.60500
In415      In  0.64611549  0.63062249  0.27596490     1.36900
C416        C  0.64798956  0.75163101  0.27512223     0.77200
O417        O  0.73948808  0.61556037  0.26554205    -0.61300
O418        O  0.66139033  0.61149629  0.25212181    -0.52200
C419        C  0.70302596  0.57322719  0.29763636     0.69800
O420        O  0.70556321  0.63015078  0.29569919    -0.47100
C421        C  0.52538480  0.60860161  0.27676399     0.74500
O422        O  0.65071142  0.72198896  0.28681652    -0.58900
O423        O  0.56112112  0.58035663  0.26816466    -0.49000
O424        O  0.64302191  0.71970027  0.26390538    -0.55400
C425        C  0.71916601  0.61131667  0.25286791     0.84700
O426        O  0.66872213  0.54566417  0.28885159    -0.57200
O427        O  0.55193003  0.64356124  0.28544197    -0.60500
In428      In  0.83325797  0.62939589  0.21691262     1.36900
C429        C  0.83446441  0.75174774  0.21636803     0.77200
O430        O  0.73947487  0.62451384  0.22750559    -0.61300
O431        O  0.81701498  0.60674263  0.24058558    -0.52200
C432        C  0.78026727  0.56216045  0.19660020     0.69800
O433        O  0.78206170  0.61968352  0.19618922    -0.47100
C434        C  0.95390294  0.60566774  0.21560666     0.74500
O435        O  0.82015957  0.72037398  0.20550289    -0.58900
O436        O  0.91942715  0.58168924  0.22507114    -0.49000
O437        O  0.84681318  0.72083568  0.22750712    -0.55400
C438        C  0.75943406  0.61257103  0.23996534     0.84700
O439        O  0.80838457  0.53828696  0.20712075    -0.57200
O440        O  0.92619451  0.63767416  0.20636601    -0.60500
C441        C  0.34356141  0.41697303  0.15190066    -0.02900
C442        C  0.35801934  0.13699472  0.15238922    -0.02900
C443        C  0.64102887  0.16135884  0.15573073    -0.02900
C444        C  0.62131311  0.44471836  0.15387018    -0.02900
C445        C  0.64873604  0.15322553  0.08943065    -0.02900
C446        C  0.62253978  0.43898786  0.08701341    -0.02900
C447        C  0.37035102  0.12583704  0.08487077    -0.02900
C448        C  0.34672054  0.40035973  0.08417231    -0.02900
C449        C  0.31118222  0.23356329  0.09299999    -0.02300
C450        C  0.34338095  0.19649173  0.08227931     0.07400
C451        C  0.33830193  0.22757761  0.06847820    -0.02400
C452        C  0.33973375  0.29393884  0.06769045    -0.02400
C453        C  0.32911728  0.32990959  0.08057065     0.07500
C454        C  0.29475198  0.29563313  0.09049704    -0.02600
Br455      Br  0.21330043  0.32438744  0.09577395    -0.01100
Br456      Br  0.28389362  0.20993089  0.11148328    -0.01200
Br457      Br  0.35902817  0.32996530  0.04922402    -0.01200
Br458      Br  0.30292768  0.18729296  0.05191388    -0.01200
C459        C  0.50876849  0.48764910  0.08311028    -0.02300
C460        C  0.55216443  0.43920814  0.08175159     0.07400
C461        C  0.52680468  0.38814436  0.07454278    -0.02400
C462        C  0.46565874  0.37180303  0.07725117    -0.02400
C463        C  0.41984125  0.41431917  0.08256595     0.07500
C464        C  0.44458430  0.47489219  0.08504251    -0.02600
Br465      Br  0.39441781  0.54419776  0.09097918    -0.01100
Br466      Br  0.52940916  0.56746051  0.07498240    -0.01200
Br467      Br  0.46441133  0.28607681  0.07801082    -0.01200
Br468      Br  0.57224230  0.33903879  0.06005097    -0.01200
C469        C  0.54929316  0.07474771  0.08732449    -0.02300
C470        C  0.57832760  0.13188258  0.08398315     0.07400
C471        C  0.54724637  0.15040602  0.07088422    -0.02400
C472        C  0.48081938  0.15306954  0.07067563    -0.02400
C473        C  0.44428677  0.11709185  0.08077158     0.07500
C474        C  0.48288649  0.07115685  0.08783035    -0.02600
Br475      Br  0.44887585  0.99589295  0.09534143    -0.01100
Br476      Br  0.58507764  0.00195609  0.07799950    -0.01200
Br477      Br  0.44929487  0.18177263  0.05231508    -0.01200
Br478      Br  0.56872823  0.10382672  0.05314540    -0.01200
C479        C  0.70305545  0.26758671  0.08104643    -0.02300
C480        C  0.65841024  0.22903871  0.08885741     0.07400
C481        C  0.62759765  0.26603443  0.09913438    -0.02400
C482        C  0.60733206  0.32463162  0.09546983    -0.02400
C483        C  0.64282933  0.36583936  0.08681859     0.07500
C484        C  0.69334280  0.33396461  0.07945581    -0.02600
Br485      Br  0.75070830  0.37638701  0.06693450    -0.01100
Br486      Br  0.78148411  0.23645945  0.07327547    -0.01200
Br487      Br  0.54429512  0.35114867  0.10768332    -0.01200
Br488      Br  0.67727025  0.29274669  0.11514583    -0.01200
C489        C  0.68662342  0.43161225  0.12778466    -0.02300
C490        C  0.64002315  0.46003267  0.13682212     0.07400
C491        C  0.61223427  0.50695271  0.12878761    -0.02400
C492        C  0.59623618  0.49848723  0.11388755    -0.02400
C493        C  0.63243701  0.45825271  0.10434149     0.07500
C494        C  0.68524031  0.43545425  0.11205731    -0.02600
Br495      Br  0.76187467  0.42108155  0.10161497    -0.01100
Br496      Br  0.76228321  0.40281932  0.13557923    -0.01200
Br497      Br  0.54554083  0.56639804  0.10842117    -0.01200
Br498      Br  0.65584202  0.58277879  0.13143268    -0.01200
C499        C  0.70751204  0.17174906  0.13038986    -0.02300
C500        C  0.66133353  0.14322851  0.13915677     0.07400
C501        C  0.63271978  0.09376521  0.13167116    -0.02400
C502        C  0.63204651  0.09002300  0.11599987    -0.02400
C503        C  0.66222348  0.13497631  0.10678455     0.07500
C504        C  0.71081875  0.16299417  0.11486557    -0.02600
Br505      Br  0.78658327  0.18752685  0.10554163    -0.01100
Br506      Br  0.77456050  0.21428185  0.13905712    -0.01200
Br507      Br  0.62284718  0.00672119  0.10990521    -0.01200
Br508      Br  0.61049042  0.02185869  0.14313031    -0.01200
C509        C  0.58837406  0.27343894  0.15889581    -0.02300
C510        C  0.64280415  0.23628127  0.15900547     0.07400
C511        C  0.69401446  0.27395215  0.16288514    -0.02400
C512        C  0.69087556  0.34063517  0.16167586    -0.02400
C513        C  0.63611236  0.37209081  0.15581175     0.07500
C514        C  0.58885445  0.33194856  0.15299409    -0.02600
Br515      Br  0.52190398  0.35445894  0.14147017    -0.01100
Br516      Br  0.52195386  0.26533496  0.17268006    -0.01200
Br517      Br  0.76297749  0.38221713  0.16918704    -0.01200
Br518      Br  0.76280045  0.23902838  0.17346761    -0.01200
C519        C  0.41149358  0.12183924  0.12615940    -0.02300
C520        C  0.35739628  0.11651162  0.13482269     0.07400
C521        C  0.31304200  0.08299821  0.12627224    -0.02400
C522        C  0.32234603  0.07378323  0.11051108    -0.02400
C523        C  0.36597173  0.11121097  0.10225996     0.07500
C524        C  0.40882972  0.13886986  0.11162796    -0.02600
Br525      Br  0.47664945  0.18677404  0.10554894    -0.01100
Br526      Br  0.47644605  0.06317437  0.12841858    -0.01200
Br527      Br  0.28533641  0.00229005  0.10218835    -0.01200
Br528      Br  0.24114444  0.04641949  0.13489170    -0.01200
C529        C  0.53039172  0.17606146  0.14627320    -0.02300
C530        C  0.56803378  0.14498317  0.15644703     0.07400
C531        C  0.53379093  0.10547067  0.16626276    -0.02400
C532        C  0.46687293  0.10463789  0.16651461    -0.02400
C533        C  0.43088469  0.14027878  0.15640910     0.07500
C534        C  0.46685187  0.18209829  0.14821742    -0.02600
Br535      Br  0.43086103  0.24853193  0.13796905    -0.01100
Br536      Br  0.56443678  0.22017363  0.12988473    -0.01200
Br537      Br  0.42926620  0.06340344  0.18294999    -0.01200
Br538      Br  0.57333483  0.04244656  0.17780929    -0.01200
C539        C  0.29394321  0.46494223  0.12553979    -0.02300
C540        C  0.33777679  0.43066374  0.13430543     0.07400
C541        C  0.38270989  0.40344634  0.12528155    -0.02400
C542        C  0.36631417  0.38064128  0.11192949    -0.02400
C543        C  0.33221057  0.41442524  0.10167080     0.07500
C544        C  0.29396998  0.45976620  0.10943050    -0.02600
Br545      Br  0.24051357  0.51493486  0.09932961    -0.01100
Br546      Br  0.23758253  0.52163670  0.13475050    -0.01200
Br547      Br  0.40646559  0.30971688  0.10842631    -0.01200
Br548      Br  0.45004154  0.45262760  0.11904178    -0.01200
C549        C  0.34013177  0.30968506  0.16704751    -0.02300
C550        C  0.33044352  0.34250299  0.15388281     0.07400
C551        C  0.29699779  0.30318436  0.14401381    -0.02400
C552        C  0.29235994  0.23784426  0.14605001    -0.02400
C553        C  0.33297269  0.20632464  0.15537300     0.07500
C554        C  0.35393846  0.24521132  0.16694965    -0.02600
Br555      Br  0.38295528  0.21102096  0.18492279    -0.01100
Br556      Br  0.28926516  0.33381452  0.18353561    -0.01200
Br557      Br  0.21519266  0.19835926  0.14177485    -0.01200
Br558      Br  0.24762471  0.33232762  0.12864713    -0.01200
C559        C  0.45325934  0.41888300  0.16789133    -0.02300
C560        C  0.41482671  0.43769766  0.15572913     0.07400
C561        C  0.44188980  0.49112958  0.14887006    -0.02400
C562        C  0.50719698  0.50297016  0.14943194    -0.02400
C563        C  0.54799098  0.46343015  0.15735666     0.07500
C564        C  0.51462551  0.44179804  0.16952741    -0.02600
Br565      Br  0.51982961  0.49793920  0.18580462    -0.01100
Br566      Br  0.42565765  0.38289244  0.18569512    -0.01200
Br567      Br  0.52527715  0.58862148  0.14824878    -0.01200
Br568      Br  0.39044233  0.55561929  0.13998317    -0.01200
C569        C  0.69714806  0.48740196  0.19125343    -0.02300
C570        C  0.74352363  0.52695646  0.18619611     0.07400
C571        C  0.74578141  0.54103042  0.17130053    -0.02400
C572        C  0.69285425  0.53137043  0.16325687    -0.02400
C573        C  0.65807066  0.47826579  0.16614674     0.07500
C574        C  0.65836727  0.45820008  0.18121620    -0.02600
Br575      Br  0.61767851  0.38551067  0.18889733    -0.01100
Br576      Br  0.68581145  0.47386758  0.21185630    -0.01200
Br577      Br  0.64905774  0.60717257  0.16628146    -0.01200
Br578      Br  0.80843757  0.59266937  0.16314466    -0.01200
C579        C  0.19669082  0.47739843  0.17542606    -0.02300
C580        C  0.22563650  0.49934104  0.18767958     0.07400
C581        C  0.28902330  0.49547055  0.18833336    -0.02400
C582        C  0.32282740  0.48724343  0.17543292    -0.02400
C583        C  0.29821169  0.45366596  0.16321984     0.07500
C584        C  0.23167519  0.44684190  0.16445609    -0.02600
Br585      Br  0.18089215  0.39298973  0.15398077    -0.01100
Br586      Br  0.10819815  0.48773195  0.17432571    -0.01200
Br587      Br  0.38012454  0.55347873  0.17451119    -0.01200
Br588      Br  0.32952842  0.51351073  0.20641511    -0.01200
C589        C  0.71270461  0.09906033  0.19253628    -0.02300
C590        C  0.76162657  0.06199345  0.18787195     0.07400
C591        C  0.77631237  0.05920006  0.17318868    -0.02400
C592        C  0.73675026  0.08483268  0.16266398    -0.02400
C593        C  0.68434013  0.12426188  0.16688859     0.07500
C594        C  0.67666540  0.13210069  0.18240327    -0.02600
Br595      Br  0.61692103  0.18616368  0.19108584    -0.01100
Br596      Br  0.69444093  0.10273870  0.21315689    -0.01200
Br597      Br  0.76124735  0.05461067  0.14355685    -0.01200
Br598      Br  0.85498529  0.02114043  0.16794118    -0.01200
C599        C  0.29563199  0.98698067  0.17198107    -0.02300
C600        C  0.24212786  0.00837633  0.17909936     0.07400
C601        C  0.22005767  0.06588284  0.17548125    -0.02400
C602        C  0.26025166  0.10964504  0.16976963    -0.02400
C603        C  0.31656266  0.09135177  0.16199933     0.07500
C604        C  0.32866629  0.02622270  0.16235835    -0.02600
Br605      Br  0.39177968  0.98710265  0.15087177    -0.01100
Br606      Br  0.32396813  0.90406640  0.17534210    -0.01200
Br607      Br  0.23340962  0.18853046  0.17716695    -0.01200
Br608      Br  0.13284852  0.08377327  0.17822817    -0.01200
C609        C  0.28137300  0.46421780  0.31197932    -0.02300
C610        C  0.26163684  0.52363167  0.30816641     0.07400
C611        C  0.21564051  0.55198275  0.31682526    -0.02400
C612        C  0.18342938  0.51755228  0.32732722    -0.02400
C613        C  0.19005412  0.45217103  0.32769633     0.07500
C614        C  0.24850346  0.43049488  0.32258861    -0.02600
Br615      Br  0.29360022  0.36671727  0.33272283    -0.01100
Br616      Br  0.35723394  0.43159568  0.30393991    -0.01200
Br617      Br  0.14101333  0.56479741  0.34252091    -0.01200
Br618      Br  0.19439098  0.63790007  0.31450490    -0.01200
C619        C  0.97125378  0.49008743  0.33221386    -0.02300
C620        C  0.93480749  0.43313700  0.33241634     0.07400
C621        C  0.97416396  0.38307027  0.33135875    -0.02400
C622        C  0.03283438  0.38887019  0.32487361    -0.02400
C623        C  0.07181509  0.43086637  0.33105714     0.07500
C624        C  0.03832381  0.48808443  0.33005614    -0.02600
Br625      Br  0.06078942  0.53769982  0.31326289    -0.01100
Br626      Br  0.93843131  0.57223814  0.33121321    -0.01200
Br627      Br  0.03879979  0.38175584  0.30405279    -0.01200
Br628      Br  0.97679307  0.35958230  0.35057907    -0.01200
C629        C  0.75410050  0.44959271  0.32346151    -0.02300
C630        C  0.81962173  0.45579041  0.32409418     0.07400
C631        C  0.84339087  0.49870121  0.31349518    -0.02400
C632        C  0.80551174  0.54451344  0.30732781    -0.02400
C633        C  0.74152074  0.54039703  0.30838679     0.07500
C634        C  0.71609888  0.49438861  0.31698319    -0.02600
Br635      Br  0.62758204  0.49143138  0.31938741    -0.01100
Br636      Br  0.71560730  0.37171163  0.32292743    -0.01200
Br637      Br  0.84187078  0.61038842  0.29606392    -0.01200
Br638      Br  0.91628717  0.48498190  0.30163394    -0.01200
C639        C  0.87467944  0.30902816  0.32218218    -0.02300
C640        C  0.84804684  0.34312951  0.33409504     0.07400
C641        C  0.80724480  0.30185689  0.34241254    -0.02400
C642        C  0.80110797  0.23891187  0.33868798    -0.02400
C643        C  0.85097972  0.20570417  0.33288832     0.07500
C644        C  0.88486469  0.24361919  0.32271453    -0.02600
Br645      Br  0.93473153  0.21049730  0.30699848    -0.01100
Br646      Br  0.87557875  0.34473216  0.30320818    -0.01200
Br647      Br  0.72156702  0.21898349  0.33061192    -0.01200
Br648      Br  0.73983171  0.31624759  0.35574771    -0.01200
C649        C  0.77631143  0.04567825  0.33076343    -0.02300
C650        C  0.81974788  0.09365919  0.32641857     0.07400
C651        C  0.81938510  0.10585608  0.31092989    -0.02400
C652        C  0.79885696  0.06191211  0.30122179    -0.02400
C653        C  0.75075097  0.02476896  0.30553718     0.07500
C654        C  0.73803340  0.01788199  0.32030465    -0.02600
Br655      Br  0.66673967  0.96971045  0.32581954    -0.01100
Br656      Br  0.76210005  0.00842080  0.34959777    -0.01200
Br657      Br  0.82658644  0.06327507  0.28118927    -0.01200
Br658      Br  0.79404559  0.18180141  0.30187956    -0.01200
C659        C  0.03467046  0.11799029  0.34929332    -0.02300
C660        C  0.07653798  0.11809815  0.33757389     0.07400
C661        C  0.04312824  0.11385215  0.32396152    -0.02400
C662        C  0.97726349  0.09979387  0.32392322    -0.02400
C663        C  0.93745368  0.11963269  0.33574273     0.07500
C664        C  0.97364378  0.13988550  0.34719667    -0.02600
Br665      Br  0.95856586  0.22213676  0.35065936    -0.01100
Br666      Br  0.03613751  0.04487420  0.35989107    -0.01200
Br667      Br  0.94940948  0.04978005  0.30835801    -0.01200
Br668      Br  0.08124502  0.12899501  0.30528109    -0.01200
C669        C  0.18280819  0.29899370  0.32233865    -0.02300
C670        C  0.14842102  0.33583603  0.33296423     0.07400
C671        C  0.10552053  0.29610037  0.33937437    -0.02400
C672        C  0.12780726  0.24203963  0.34525288    -0.02400
C673        C  0.16036352  0.19904682  0.33635493     0.07500
C674        C  0.18913326  0.23142305  0.32403255    -0.02600
Br675      Br  0.22978897  0.18896553  0.30839522    -0.01100
Br676      Br  0.19715709  0.33255402  0.30316170    -0.01200
Br677      Br  0.09566245  0.22800131  0.36358657    -0.01200
Br678      Br  0.04976432  0.26048658  0.32533276    -0.01200
C679        C  0.25570294  0.07746632  0.32903924    -0.02300
C680        C  0.18953097  0.07922263  0.32977009     0.07400
C681        C  0.16172593  0.03445489  0.32052829    -0.02400
C682        C  0.19216410  0.01436062  0.30778410    -0.02400
C683        C  0.25465212  0.02616276  0.30551491     0.07500
C684        C  0.28676440  0.05686852  0.31633415    -0.02600
Br685      Br  0.37442334  0.06820423  0.31415833    -0.01100
Br686      Br  0.30529751  0.06533222  0.34601301    -0.01200
Br687      Br  0.14665548  0.97320513  0.29282513    -0.01200
Br688      Br  0.09149392  0.98477430  0.32592042    -0.01200
C689        C  0.14551967  0.37417130  0.37568890    -0.02300
C690        C  0.17079978  0.41618703  0.38565968     0.07400
C691        C  0.20100903  0.46422374  0.37709138    -0.02400
C692        C  0.20258372  0.46065480  0.36103480    -0.02400
C693        C  0.15498206  0.42509369  0.35316994     0.07500
C694        C  0.11523841  0.40041778  0.36344426    -0.02600
Br695      Br  0.05702447  0.46542535  0.36689342    -0.01100
Br696      Br  0.21128701  0.32218015  0.36808092    -0.01200
Br697      Br  0.27547624  0.49718889  0.35257051    -0.01200
Br698      Br  0.23453687  0.53779649  0.38538323    -0.01200
C699        C  0.16756656  0.05442495  0.38052022    -0.02300
C700        C  0.17900345  0.10856408  0.38870498     0.07400
C701        C  0.21901364  0.14678766  0.38012393    -0.02400
C702        C  0.21271679  0.15299041  0.36467423    -0.02400
C703        C  0.17355998  0.11273542  0.35678902     0.07500
C704        C  0.16789759  0.05595742  0.36476152    -0.02600
Br705      Br  0.17584596  0.97832394  0.35498279    -0.01100
Br706      Br  0.17378403  0.97537656  0.38991453    -0.01200
Br707      Br  0.27315949  0.20317811  0.35439543    -0.01200
Br708      Br  0.30264847  0.15264538  0.38617360    -0.01200
C709        C  0.18311802  0.30071159  0.42206724    -0.02300
C710        C  0.17967570  0.33393958  0.40815976     0.07400
C711        C  0.19961925  0.29169106  0.39802553    -0.02400
C712        C  0.16673061  0.23631926  0.39787162    -0.02400
C713        C  0.17387860  0.19527468  0.40924861     0.07500
C714        C  0.18411743  0.23158025  0.42253923    -0.02600
Br715      Br  0.21030856  0.19294767  0.44015851    -0.01100
Br716      Br  0.20177996  0.34594881  0.43934383    -0.01200
Br717      Br  0.08290236  0.24393985  0.39684729    -0.01200
Br718      Br  0.28749759  0.28158298  0.39948334    -0.01200
C719        C  0.79825364  0.42955407  0.36155420    -0.02300
C720        C  0.84872344  0.44172245  0.35230529     0.07400
C721        C  0.88303897  0.48667219  0.35933115    -0.02400
C722        C  0.89999916  0.47750278  0.37419988    -0.02400
C723        C  0.86537409  0.43593251  0.38355604     0.07500
C724        C  0.80814553  0.41932637  0.37680589    -0.02600
Br725      Br  0.73758817  0.39399292  0.38800141    -0.01100
Br726      Br  0.71904499  0.46386747  0.35636544    -0.01200
Br727      Br  0.94339593  0.54727157  0.38117917    -0.01200
Br728      Br  0.84361643  0.56633700  0.35643267    -0.01200
C729        C  0.99032742  0.47687369  0.40636289    -0.02300
C730        C  0.95458226  0.42297489  0.40344393     0.07400
C731        C  0.99357432  0.37120253  0.40253581    -0.02400
C732        C  0.05088146  0.37077755  0.40950871    -0.02400
C733        C  0.09012046  0.41827326  0.40566856     0.07500
C734        C  0.05628757  0.47524459  0.40378754    -0.02600
Br735      Br  0.09469785  0.55165152  0.39923130    -0.01100
Br736      Br  0.95732920  0.54871492  0.41608486    -0.01200
Br737      Br  0.05361465  0.34516575  0.42945766    -0.01200
Br738      Br  0.00527482  0.34752691  0.38323656    -0.01200
C739        C  0.80910303  0.16316545  0.37820191    -0.02300
C740        C  0.84943055  0.12522512  0.38683942     0.07400
C741        C  0.87104619  0.07269396  0.37877853    -0.02400
C742        C  0.87409253  0.07220822  0.36302621    -0.02400
C743        C  0.84631168  0.12027172  0.35445493     0.07500
C744        C  0.80170472  0.15324066  0.36296643    -0.02600
Br745      Br  0.71584517  0.14126532  0.35856441    -0.01100
Br746      Br  0.74538399  0.21536303  0.38649748    -0.01200
Br747      Br  0.90452694  0.99842116  0.35340436    -0.01200
Br748      Br  0.88410902  0.99702125  0.38905533    -0.01200
C749        C  0.97516124  0.10748090  0.41939209    -0.02300
C750        C  0.94156749  0.11736337  0.40610537     0.07400
C751        C  0.98444313  0.11628732  0.39441790    -0.02400
C752        C  0.04496861  0.09297123  0.39551753    -0.02400
C753        C  0.08112955  0.11241372  0.40738848     0.07500
C754        C  0.04093479  0.12018617  0.42006181    -0.02600
Br755      Br  0.06859250  0.14276639  0.43885104    -0.01100
Br756      Br  0.95271171  0.04009727  0.43180137    -0.01200
Br757      Br  0.03286610  0.00679134  0.39366275    -0.01200
Br758      Br  0.97675490  0.17200872  0.38028536    -0.01200
C759        C  0.89115423  0.30086444  0.39487562    -0.02300
C760        C  0.86059004  0.34580868  0.40299482     0.07400
C761        C  0.81485411  0.31626322  0.41255662    -0.02400
C762        C  0.81140601  0.24877819  0.41340255    -0.02400
C763        C  0.85928332  0.21067510  0.40647525     0.07500
C764        C  0.90678398  0.24610762  0.40169509    -0.02600
Br765      Br  0.96096128  0.25062049  0.41739725    -0.01100
Br766      Br  0.87128300  0.29343022  0.37501401    -0.01200
Br767      Br  0.73891715  0.21362519  0.42256041    -0.01200
Br768      Br  0.75160261  0.36131232  0.42313155    -0.01200
C769        C  0.34020059  0.48593016  0.06326827    -0.02300
C770        C  0.31074931  0.44211729  0.07264641     0.07400
C771        C  0.24597770  0.43815729  0.07041239    -0.02400
C772        C  0.21250349  0.48902196  0.06521432    -0.02400
C773        C  0.24329388  0.53723646  0.05807490     0.07500
C774        C  0.30764954  0.53677512  0.05794154    -0.02600
Br775      Br  0.35285480  0.60651532  0.05061468    -0.01100
Br776      Br  0.41483292  0.46980589  0.05228064    -0.01200
Br777      Br  0.12374440  0.48669263  0.06685129    -0.01200
Br778      Br  0.21156573  0.36469495  0.06239303    -0.01200
C779        C  0.26289245  0.08695556  0.07503296    -0.02300
C780        C  0.32934043  0.08040918  0.07537274     0.07400
C781        C  0.35342027  0.03214325  0.06590652    -0.02400
C782        C  0.31363270  0.99190422  0.05873238    -0.02400
C783        C  0.25258717  0.00838195  0.05657445     0.07500
C784        C  0.22751028  0.05713145  0.06449601    -0.02600
Br785      Br  0.14515178  0.08668084  0.06018043    -0.01100
Br786      Br  0.21273577  0.13254109  0.08848109    -0.01200
Br787      Br  0.34196756  0.91245296  0.05179266    -0.01200
Br788      Br  0.43623306  0.01928298  0.05878308    -0.01200
C789        C  0.74652600  0.55362200  0.06993585    -0.02300
C790        C  0.74235525  0.54108163  0.05519713     0.07400
C791        C  0.69840882  0.50043953  0.05042155    -0.02400
C792        C  0.65316050  0.47817066  0.06004502    -0.02400
C793        C  0.65992457  0.48234582  0.07572094     0.07500
C794        C  0.70440025  0.52761364  0.07998778    -0.02600
Br795      Br  0.70231463  0.57215548  0.09775928    -0.01100
Br796      Br  0.80998184  0.60964135  0.07608135    -0.01200
Br797      Br  0.57684394  0.47546115  0.04958442    -0.01200
Br798      Br  0.70080872  0.47436974  0.03029405    -0.01200
C799        C  0.74698020  0.02303755  0.07063952    -0.02300
C800        C  0.74534162  0.04008614  0.05609496     0.07400
C801        C  0.72266267  0.09772055  0.05227902    -0.02400
C802        C  0.69522997  0.13656017  0.06284398    -0.02400
C803        C  0.69416414  0.11968960  0.07817467     0.07500
C804        C  0.72805329  0.06416456  0.08164181    -0.02600
Br805      Br  0.76357779  0.04250609  0.10010764    -0.01100
Br806      Br  0.77409260  0.94049190  0.07529544    -0.01200
Br807      Br  0.66036209  0.21159492  0.05433628    -0.01200
Br808      Br  0.72879352  0.12257849  0.03204994    -0.01200
C809        C  0.88322579  0.74874255  0.57320140    -0.02300
C810        C  0.85686293  0.70670048  0.58358088     0.07400
C811        C  0.80766199  0.73521071  0.59142810    -0.02400
C812        C  0.81050293  0.79849590  0.59535221    -0.02400
C813        C  0.84326465  0.84227152  0.58626793     0.07500
C814        C  0.86491188  0.81205158  0.57320176    -0.02600
Br815      Br  0.83310838  0.83666821  0.55465267    -0.01100
Br816      Br  0.93478339  0.72220241  0.55693304    -0.01200
Br817      Br  0.74847517  0.81832058  0.60976348    -0.01200
Br818      Br  0.72638898  0.71702623  0.58439899    -0.01200
C819        C  0.94866316  0.99919508  0.58242770    -0.02300
C820        C  0.91818856  0.94055869  0.58243359     0.07400
C821        C  0.95440113  0.90265133  0.57371675    -0.02400
C822        C  0.01538059  0.89500844  0.57763365    -0.02400
C823        C  0.05220998  0.94520608  0.58286315     0.07500
C824        C  0.01547571  0.00122835  0.58295935    -0.02600
Br825      Br  0.05099894  0.08307372  0.58448970    -0.01100
Br826      Br  0.92159691  0.06114891  0.56878432    -0.01200
Br827      Br  0.02380650  0.81021313  0.57692575    -0.01200
Br828      Br  0.95147769  0.91862745  0.55313452    -0.01200
C829        C  0.99188933  0.68114812  0.59133375    -0.02300
C830        C  0.95732586  0.63917852  0.58351035     0.07400
C831        C  0.99685819  0.60501597  0.57348407    -0.02400
C832        C  0.06249482  0.62037009  0.57134187    -0.02400
C833        C  0.09523562  0.65987650  0.58156103     0.07500
C834        C  0.05513192  0.67435080  0.59304032    -0.02600
Br835      Br  0.06350866  0.61917323  0.60826303    -0.01100
Br836      Br  0.95479245  0.74170208  0.60246464    -0.01200
Br837      Br  0.10068922  0.58496322  0.55418918    -0.01200
Br838      Br  0.96748241  0.53371583  0.56360744    -0.01200
C839        C  0.15132034  0.77816100  0.56677711    -0.02300
C840        C  0.18116929  0.74857835  0.57855553     0.07400
C841        C  0.22187107  0.79082230  0.58585546    -0.02400
C842        C  0.21426672  0.85533963  0.58398831    -0.02400
C843        C  0.15648405  0.87853218  0.57982111     0.07500
C844        C  0.14213177  0.84390381  0.56686094    -0.02600
Br845      Br  0.10948654  0.87693096  0.54924694    -0.01100
Br846      Br  0.12518031  0.73186308  0.55030481    -0.01200
Br847      Br  0.28097752  0.88850211  0.57227829    -0.01200
Br848      Br  0.29447173  0.76704063  0.59621611    -0.01200
C849        C  0.10275254  0.98875396  0.62999164    -0.02300
C850        C  0.14480958  0.95308919  0.63790071     0.07400
C851        C  0.19796868  0.95023614  0.62881349    -0.02400
C852        C  0.19349916  0.94265178  0.61297719    -0.02400
C853        C  0.13522451  0.95014746  0.60487052     0.07500
C854        C  0.08903782  0.97476503  0.61530318    -0.02600
Br855      Br  0.01007323  0.01367278  0.61337514    -0.01100
Br856      Br  0.11475970  0.07622450  0.63163536    -0.01200
Br857      Br  0.27401487  0.94271390  0.60424378    -0.01200
Br858      Br  0.25922071  0.00921413  0.63494705    -0.01200
C859        C  0.79160687  0.94136695  0.63176656    -0.02300
C860        C  0.84207583  0.91435286  0.63975332     0.07400
C861        C  0.88257662  0.88328097  0.63026160    -0.02400
C862        C  0.89452605  0.90262937  0.61607398    -0.02400
C863        C  0.84719692  0.92573155  0.60722075     0.07500
C864        C  0.79334150  0.94564934  0.61588016    -0.02600
Br865      Br  0.71603000  0.97105692  0.60714441    -0.01100
Br866      Br  0.71373092  0.96206794  0.64124994    -0.01200
Br867      Br  0.97287751  0.87784321  0.60932424    -0.01200
Br868      Br  0.87196504  0.79787279  0.62931538    -0.01200
C869        C  0.96150917  0.95998251  0.64784731    -0.02300
C870        C  0.92453086  0.94276010  0.65963624     0.07400
C871        C  0.95857973  0.95530130  0.67274585    -0.02400
C872        C  0.02653476  0.95758474  0.67236375    -0.02400
C873        C  0.06076701  0.94057771  0.65901777     0.07500
C874        C  0.01885389  0.93056408  0.64768622    -0.02600
Br875      Br  0.00812313  0.84982700  0.64361091    -0.01100
Br876      Br  0.96848538  0.04723752  0.64597406    -0.01200
Br877      Br  0.06631352  0.98193907  0.69026666    -0.01200
Br878      Br  0.91538880  0.98455795  0.68980828    -0.01200
C879        C  0.15753212  0.71671940  0.61020206    -0.02300
C880        C  0.18752723  0.67512506  0.60041175     0.07400
C881        C  0.23395451  0.63777327  0.60756816    -0.02400
C882        C  0.23687350  0.63254364  0.62335050    -0.02400
C883        C  0.19088960  0.66060776  0.63272376     0.07500
C884        C  0.15545813  0.70525477  0.62519725    -0.02600
Br885      Br  0.10405993  0.75905862  0.63517580    -0.01100
Br886      Br  0.11068376  0.78952044  0.60418181    -0.01200
Br887      Br  0.31464917  0.60401357  0.63129234    -0.01200
Br888      Br  0.30477531  0.60614602  0.59686956    -0.01200
C889        C  0.15278670  0.75316316  0.66723717    -0.02300
C890        C  0.18958598  0.72719718  0.65601990     0.07400
C891        C  0.22543193  0.77308365  0.64834715    -0.02400
C892        C  0.21392779  0.83707597  0.65022957    -0.02400
C893        C  0.15759931  0.86053511  0.65673963     0.07500
C894        C  0.13208959  0.81615682  0.66680413    -0.02600
Br895      Br  0.08576039  0.84062145  0.68363325    -0.01100
Br896      Br  0.14949933  0.71016779  0.68548985    -0.01200
Br897      Br  0.28929974  0.88298984  0.64947933    -0.01200
Br898      Br  0.29301155  0.75381998  0.63505940    -0.01200
C899        C  0.82884115  0.64855230  0.62851921    -0.02300
C900        C  0.87718660  0.61991290  0.63698956     0.07400
C901        C  0.91037026  0.57541308  0.62825200    -0.02400
C902        C  0.91512659  0.57983650  0.61254763    -0.02400
C903        C  0.87567463  0.62048607  0.60439580     0.07500
C904        C  0.82439944  0.63935342  0.61311441    -0.02600
Br905      Br  0.74394792  0.61336155  0.60685199    -0.01100
Br906      Br  0.75297380  0.67981526  0.63648490    -0.01200
Br907      Br  0.96352341  0.51690896  0.60265219    -0.01200
Br908      Br  0.93375996  0.49900507  0.63748021    -0.01200
C909        C  0.82210427  0.73164692  0.66043303    -0.02300
C910        C  0.88255779  0.70464739  0.65888214     0.07400
C911        C  0.92760608  0.74842077  0.66366086    -0.02400
C912        C  0.91191451  0.81000528  0.66729475    -0.02400
C913        C  0.86029044  0.83898876  0.66109065     0.07500
C914        C  0.81221518  0.79615542  0.65839736    -0.02600
Br915      Br  0.73062474  0.82238205  0.65341899    -0.01100
Br916      Br  0.75575671  0.69160058  0.67095611    -0.01200
Br917      Br  0.93306295  0.83215208  0.68685732    -0.01200
Br918      Br  0.00918259  0.73028115  0.66914578    -0.01200
C919        C  0.00898643  0.63755059  0.64354897    -0.02300
C920        C  0.97144824  0.61686857  0.65506569     0.07400
C921        C  0.01103799  0.58903712  0.66605339    -0.02400
C922        C  0.07869205  0.60122963  0.66615465    -0.02400
C923        C  0.11016611  0.62988365  0.65361003     0.07500
C924        C  0.07135112  0.62043526  0.64183423    -0.02600
Br925      Br  0.07588344  0.53613801  0.63585660    -0.01100
Br926      Br  0.98047146  0.70143314  0.63271775    -0.01200
Br927      Br  0.12423152  0.56457314  0.68172782    -0.01200
Br928      Br  0.98055992  0.52443820  0.67834627    -0.01200
C929        C  0.26265911  0.51431529  0.66911328    -0.02300
C930        C  0.28330470  0.54238562  0.68190472     0.07400
C931        C  0.28343967  0.60620669  0.68260779    -0.02400
C932        C  0.26699906  0.64098689  0.67050091    -0.02400
C933        C  0.23044858  0.61553042  0.65907619     0.07500
C934        C  0.23474699  0.54983228  0.65799055    -0.02600
Br935      Br  0.21327298  0.50475390  0.64094465    -0.01100
Br936      Br  0.27334404  0.42668929  0.66669754    -0.01200
Br937      Br  0.31624739  0.71381604  0.66903840    -0.01200
Br938      Br  0.30431742  0.64866215  0.70034800    -0.01200
C939        C  0.85959691  0.59961702  0.68088573    -0.02300
C940        C  0.85514732  0.59105796  0.66529065     0.07400
C941        C  0.80589898  0.54982088  0.66097303    -0.02400
C942        C  0.76462864  0.52412209  0.67138247    -0.02400
C943        C  0.77197473  0.53359451  0.68620766     0.07500
C944        C  0.82084747  0.56876682  0.69093049    -0.02600
Br945      Br  0.83507541  0.57268757  0.71167412    -0.01100
Br946      Br  0.91333233  0.65682875  0.69008758    -0.01200
Br947      Br  0.69356692  0.47669456  0.66562138    -0.01200
Br948      Br  0.78556166  0.52310055  0.64158592    -0.01200
C949        C  0.75162012  0.96058939  0.69135225    -0.02300
C950        C  0.73603535  0.02074629  0.68772274     0.07400
C951        C  0.75328644  0.04351004  0.67415798    -0.02400
C952        C  0.79483600  0.01064816  0.66514994    -0.02400
C953        C  0.80925015  0.94683608  0.66771701     0.07500
C954        C  0.78264362  0.92209628  0.68119838    -0.02600
Br955      Br  0.78314816  0.83844522  0.68825245    -0.01100
Br956      Br  0.73332035  0.93223939  0.71105861    -0.01200
Br957      Br  0.82542270  0.05817738  0.64908015    -0.01200
Br958      Br  0.71434974  0.11850643  0.66742035    -0.01200
C959        C  0.21097394  0.07484869  0.67587676    -0.02300
C960        C  0.26167739  0.04745156  0.68273027     0.07400
C961        C  0.27282573  0.98570477  0.68042677    -0.02400
C962        C  0.22664353  0.94843790  0.67485997    -0.02400
C963        C  0.17655674  0.97331098  0.66620957     0.07500
C964        C  0.16860828  0.03890036  0.66794562    -0.02600
Br965      Br  0.09222855  0.08174989  0.66483409    -0.01100
Br966      Br  0.19823058  0.16268076  0.67766464    -0.01200
Br967      Br  0.23202401  0.87004664  0.68459033    -0.01200
Br968      Br  0.35296459  0.95137925  0.68519921    -0.01200
C969        C  0.81856262  0.53244891  0.58094207    -0.02300
C970        C  0.84611953  0.59074640  0.57669212     0.07400
C971        C  0.83930539  0.60463588  0.56144925    -0.02400
C972        C  0.82916160  0.55812169  0.55136283    -0.02400
C973        C  0.79455870  0.50803116  0.55574830     0.07500
C974        C  0.78659521  0.49696012  0.57060528    -0.02600
Br975      Br  0.73251692  0.43084803  0.57649365    -0.01100
Br976      Br  0.82016663  0.49149127  0.59958471    -0.01200
Br977      Br  0.84614799  0.57293949  0.53100916    -0.01200
Br978      Br  0.79320986  0.67424398  0.55443057    -0.01200
C979        C  0.77492745  0.54342643  0.42038185    -0.02300
C980        C  0.78787086  0.53102953  0.43486066     0.07400
C981        C  0.83094836  0.48604512  0.43835354    -0.02400
C982        C  0.85870277  0.44993097  0.42735731    -0.02400
C983        C  0.84660639  0.46004336  0.41214242     0.07500
C984        C  0.80514374  0.51088840  0.40905136    -0.02600
Br985      Br  0.78638819  0.54539815  0.39039492    -0.01100
Br986      Br  0.71558791  0.60856780  0.41642264    -0.01200
Br987      Br  0.90851022  0.38359647  0.43442893    -0.01200
Br988      Br  0.84819567  0.47143392  0.45866094    -0.01200
C989        C  0.77597886  0.06052840  0.57212028    -0.02300
C990        C  0.75013943  0.03275641  0.55997065     0.07400
C991        C  0.73917176  0.96986556  0.56027106    -0.02400
C992        C  0.75909782  0.93459923  0.57201985    -0.02400
C993        C  0.80288319  0.95815285  0.58182670     0.07500
C994        C  0.80286880  0.02378248  0.58309486    -0.02600
Br995      Br  0.83816353  0.06628682  0.59953099    -0.01100
Br996      Br  0.77610466  0.14874828  0.57332509    -0.01200
Br997      Br  0.70681692  0.86711505  0.57662409    -0.01200
Br998      Br  0.69477527  0.93135674  0.54470042    -0.01200
C999        C  0.76200879  0.01134020  0.42132125    -0.02300
C1000       C  0.77456414  0.01669481  0.43609315     0.07400
C1001       C  0.80855609  0.06650163  0.44088585    -0.02400
C1002       C  0.83348178  0.10894503  0.43083548    -0.02400
C1003       C  0.82653145  0.10122384  0.41533596     0.07500
C1004       C  0.78200299  0.05616876  0.41132073    -0.02600
Br1005     Br  0.73178357  0.06046765  0.39424884    -0.01100
Br1006     Br  0.71789098  0.94036075  0.41470554    -0.01200
Br1007     Br  0.87493480  0.17663734  0.43984292    -0.01200
Br1008     Br  0.82241867  0.07534328  0.46157617    -0.01200
C1009       C  0.23691818  0.52389930  0.56598213    -0.02300
C1010       C  0.27069035  0.54477722  0.55397860     0.07400
C1011       C  0.27680048  0.60776993  0.55184576    -0.02400
C1012       C  0.25237841  0.65029251  0.56198185    -0.02400
C1013       C  0.21034432  0.63146491  0.57347026     0.07500
C1014       C  0.20587449  0.56581584  0.57540959    -0.02600
Br1015     Br  0.15995975  0.52879931  0.59104876    -0.01100
Br1016     Br  0.23490829  0.43665512  0.56949941    -0.01200
Br1017     Br  0.29215211  0.72869703  0.56025313    -0.01200
Br1018     Br  0.31973934  0.63595591  0.53448465    -0.01200
C1019       C  0.20995516  0.53622625  0.43120935    -0.02300
C1020       C  0.27353624  0.52930036  0.43206663     0.07400
C1021       C  0.30214383  0.48551408  0.42294050    -0.02400
C1022       C  0.26746229  0.45280576  0.41256802    -0.02400
C1023       C  0.20119617  0.45098866  0.41337463     0.07500
C1024       C  0.17473715  0.49104266  0.42446091    -0.02600
Br1025     Br  0.09789665  0.48223443  0.43494063    -0.01100
Br1026     Br  0.16988645  0.60837704  0.43936107    -0.01200
Br1027     Br  0.31564618  0.42050793  0.39662113    -0.01200
Br1028     Br  0.38897105  0.46780884  0.42483543    -0.01200
C1029       C  0.24700252  0.06556018  0.57298496    -0.02300
C1030       C  0.24643176  0.05367580  0.55802128     0.07400
C1031       C  0.19881871  0.01886501  0.55246156    -0.02400
C1032       C  0.15107740  0.99928047  0.56162915    -0.02400
C1033       C  0.15881222  0.99546693  0.57708039     0.07500
C1034       C  0.20282111  0.03825139  0.58244515    -0.02600
Br1035     Br  0.19274166  0.07887230  0.60071961    -0.01100
Br1036     Br  0.30539440  0.12402255  0.58019157    -0.01200
Br1037     Br  0.07299222  0.01794719  0.55267521    -0.01200
Br1038     Br  0.19480608  0.00232523  0.53181587    -0.01200
C1039       C  0.28995945  0.06514331  0.42990929    -0.02300
C1040       C  0.26162162  0.02969759  0.44091114     0.07400
C1041       C  0.19778300  0.02090567  0.44001351    -0.02400
C1042       C  0.16560076  0.03959845  0.42751331    -0.02400
C1043       C  0.19344575  0.07778913  0.41659875     0.07500
C1044       C  0.25890186  0.07701720  0.41691688    -0.02600
Br1045     Br  0.30142181  0.02668476  0.40281262    -0.01100
Br1046     Br  0.37455796  0.09058924  0.43078719    -0.01200
Br1047     Br  0.09808942  0.98689544  0.42385165    -0.01200
Br1048     Br  0.15160580  0.98438526  0.45596079    -0.01200
C1049       C  0.28823969  0.01153666  0.91237923    -0.02300
C1050       C  0.31041772  0.95047010  0.91624922     0.07400
C1051       C  0.30024416  0.93546642  0.93156513    -0.02400
C1052       C  0.28515882  0.98090582  0.94193315    -0.02400
C1053       C  0.26838138  0.03948490  0.93761277     0.07500
C1054       C  0.27247929  0.05555611  0.92307229    -0.02600
Br1055     Br  0.25774184  0.14089562  0.91821349    -0.01100
Br1056     Br  0.25461639  0.03669978  0.89394959    -0.01200
Br1057     Br  0.28685725  0.96384081  0.96266371    -0.01200
Br1058     Br  0.27980111  0.85650017  0.93974362    -0.01200
C1059       C  0.52905010  0.97411720  0.91448504    -0.02300
C1060       C  0.56602538  0.94015320  0.90390518     0.07400
C1061       C  0.52674735  0.91460969  0.89341819    -0.02400
C1062       C  0.46836907  0.89286178  0.89737652    -0.02400
C1063       C  0.42805342  0.92231489  0.90717106     0.07500
C1064       C  0.46194716  0.96566549  0.91601442    -0.02600
Br1065     Br  0.42232864  0.01371775  0.93085938    -0.01100
Br1066     Br  0.56247932  0.04469658  0.92411979    -0.01200
Br1067     Br  0.45306429  0.81440984  0.89167281    -0.01200
Br1068     Br  0.51169872  0.96302482  0.87667430    -0.01200
C1069       C  0.72735707  0.00882801  0.91012462    -0.02300
C1070       C  0.68027279  0.96521927  0.91434873     0.07400
C1071       C  0.67027372  0.96064969  0.92989130    -0.02400
C1072       C  0.69757657  0.00149610  0.93978704    -0.02400
C1073       C  0.73665812  0.04754667  0.93487896     0.07500
C1074       C  0.74973246  0.05231473  0.92006758    -0.02600
Br1075     Br  0.79873285  0.12096984  0.91347631    -0.01100
Br1076     Br  0.77709839  0.00650402  0.89255064    -0.01200
Br1077     Br  0.68196328  0.99470304  0.96055147    -0.01200
Br1078     Br  0.62212837  0.89907561  0.93926025    -0.01200
C1079       C  0.29912788  0.74277275  0.89784269    -0.02300
C1080       C  0.33746251  0.69897308  0.90573713     0.07400
C1081       C  0.36280391  0.72968920  0.91829570    -0.02400
C1082       C  0.37271449  0.79554051  0.91862458    -0.02400
C1083       C  0.34007344  0.83586365  0.90895823     0.07500
C1084       C  0.29111518  0.80431225  0.90266429    -0.02600
Br1085     Br  0.21036496  0.81953420  0.91136999    -0.01100
Br1086     Br  0.23625346  0.72961264  0.88408646    -0.01200
Br1087     Br  0.42063633  0.82927197  0.93421216    -0.01200
Br1088     Br  0.36189604  0.68899675  0.93695091    -0.01200
C1089       C  0.28506194  0.48335849  0.92471970    -0.02300
C1090       C  0.25961627  0.51457742  0.93664148     0.07400
C1091       C  0.25061528  0.57767270  0.93569210    -0.02400
C1092       C  0.26628437  0.60876372  0.92290990    -0.02400
C1093       C  0.30758670  0.58239541  0.91247428     0.07500
C1094       C  0.30566414  0.51626721  0.91229007    -0.02600
Br1095     Br  0.30383822  0.46791106  0.89483164    -0.01100
Br1096     Br  0.28994634  0.39491251  0.92544410    -0.01200
Br1097     Br  0.20647242  0.66959997  0.91797482    -0.01200
Br1098     Br  0.21223792  0.62189336  0.95165592    -0.01200
C1099       C  0.69974931  0.74952215  0.91451117    -0.02300
C1100       C  0.65288258  0.71414367  0.90699201     0.07400
C1101       C  0.61616180  0.75352611  0.89889424    -0.02400
C1102       C  0.60504570  0.81394219  0.90259571    -0.02400
C1103       C  0.65256685  0.85178463  0.90624642     0.07500
C1104       C  0.70086440  0.81722075  0.91368612    -0.02600
Br1105     Br  0.77099628  0.85818883  0.92179768    -0.01100
Br1106     Br  0.76866971  0.71002035  0.92400476    -0.01200
Br1107     Br  0.55046661  0.81628055  0.91829961    -0.01200
Br1108     Br  0.58341620  0.72836518  0.88198939    -0.01200
C1109       C  0.53121524  0.57237363  0.91409911    -0.02300
C1110       C  0.56456770  0.62624878  0.90848452     0.07400
C1111       C  0.52079789  0.67404758  0.90847907    -0.02400
C1112       C  0.46458540  0.66225829  0.90141851    -0.02400
C1113       C  0.42551087  0.61708154  0.90688582     0.07500
C1114       C  0.46241161  0.57247604  0.91515084    -0.02600
Br1115     Br  0.42621861  0.51989363  0.92946303    -0.01100
Br1116     Br  0.57375901  0.50440583  0.92300498    -0.01200
Br1117     Br  0.45216261  0.68256419  0.88195422    -0.01200
Br1118     Br  0.50260769  0.69301852  0.92859003    -0.01200
C1119       C  0.74822660  0.51224421  0.92289070    -0.02300
C1120       C  0.73690872  0.52204326  0.93760632     0.07400
C1121       C  0.69696700  0.56861575  0.94209586    -0.02400
C1122       C  0.67090760  0.60896381  0.93187625    -0.02400
C1123       C  0.67944421  0.60027239  0.91642990     0.07500
C1124       C  0.72180716  0.55087438  0.91228206    -0.02600
Br1125     Br  0.75425137  0.53173044  0.89307239    -0.01100
Br1126     Br  0.79930416  0.44174897  0.91759051    -0.01200
Br1127     Br  0.63453126  0.68075259  0.94058206    -0.01200
Br1128     Br  0.68020572  0.57829596  0.96273308    -0.01200
C1129       C  0.36496041  0.97053377  0.86403721    -0.02300
C1130       C  0.33954621  0.92089351  0.85563576     0.07400
C1131       C  0.29982697  0.88317322  0.86443681    -0.02400
C1132       C  0.29322456  0.89233550  0.87978424    -0.02400
C1133       C  0.33887577  0.92247891  0.88820567     0.07500
C1134       C  0.36760707  0.96982873  0.87976127    -0.02600
Br1135     Br  0.40051897  0.04206974  0.88947567    -0.01100
Br1136     Br  0.38413526  0.04697997  0.85491438    -0.01200
Br1137     Br  0.20779290  0.90601623  0.88508955    -0.01200
Br1138     Br  0.23468155  0.83547177  0.85626498    -0.01200
C1139       C  0.26302096  0.98875821  0.83195801    -0.02300
C1140       C  0.31510152  0.95050415  0.82753452     0.07400
C1141       C  0.32720861  0.94924734  0.81202266    -0.02400
C1142       C  0.28969909  0.98102882  0.80202613    -0.02400
C1143       C  0.24307956  0.02058002  0.80685146     0.07500
C1144       C  0.23045546  0.02508279  0.82172615    -0.02600
Br1145     Br  0.16436128  0.08015420  0.82780201    -0.01100
Br1146     Br  0.22695790  0.99405676  0.85119050    -0.01200
Br1147     Br  0.30533711  0.97485849  0.78125221    -0.01200
Br1148     Br  0.40048916  0.91546389  0.80313304    -0.01200
C1149       C  0.63664026  0.99216908  0.86332620    -0.02300
C1150       C  0.66358010  0.94451589  0.85463051     0.07400
C1151       C  0.71009735  0.91091107  0.86223267    -0.02400
C1152       C  0.70593860  0.90276467  0.87764840    -0.02400
C1153       C  0.66315371  0.93862985  0.88640349     0.07500
C1154       C  0.64241761  0.99209532  0.87885450    -0.02600
Br1155     Br  0.61838441  0.06512968  0.88942644    -0.01100
Br1156     Br  0.59820097  0.06267219  0.85475412    -0.01200
Br1157     Br  0.76587309  0.84712035  0.88537542    -0.01200
Br1158     Br  0.78115380  0.87833478  0.85179834    -0.01200
C1159       C  0.53039189  0.98492319  0.83008589    -0.02300
C1160       C  0.56815591  0.93576206  0.83623510     0.07400
C1161       C  0.53094038  0.88506276  0.83826351    -0.02400
C1162       C  0.47119872  0.89081459  0.84318812    -0.02400
C1163       C  0.42926022  0.92860670  0.83642168     0.07500
C1164       C  0.46219960  0.98045041  0.82961398    -0.02600
Br1165     Br  0.41987140  0.04891621  0.82050240    -0.01100
Br1166     Br  0.56785820  0.05444398  0.82046841    -0.01200
Br1167     Br  0.45126428  0.84872820  0.85974446    -0.01200
Br1168     Br  0.53554859  0.82925028  0.82295388    -0.01200
C1169       C  0.67199253  0.96126521  0.81137252    -0.02300
C1170       C  0.68379070  0.96364195  0.82682870     0.07400
C1171       C  0.73655742  0.00129826  0.83062964    -0.02400
C1172       C  0.77787274  0.02284400  0.81987833    -0.02400
C1173       C  0.76260158  0.02152478  0.80531526     0.07500
C1174       C  0.70912077  0.99243000  0.80106745    -0.02600
Br1175     Br  0.68665409  0.99693578  0.78073205    -0.01100
Br1176     Br  0.60748554  0.91628752  0.80258546    -0.01200
Br1177     Br  0.85800757  0.05523795  0.82479335    -0.01200
Br1178     Br  0.75609932  0.03790099  0.84919975    -0.01200
C1179       C  0.29451587  0.61894063  0.86165131    -0.02300
C1180       C  0.34903858  0.60221242  0.85330320     0.07400
C1181       C  0.38622359  0.56139571  0.86195110    -0.02400
C1182       C  0.38762472  0.56500584  0.87759968    -0.02400
C1183       C  0.34423649  0.60240910  0.88561357     0.07500
C1184       C  0.29055611  0.61029152  0.87718937    -0.02600
Br1185     Br  0.21174577  0.58595108  0.88538221    -0.01100
Br1186     Br  0.22012986  0.64674065  0.85270957    -0.01200
Br1187     Br  0.44112119  0.50625756  0.88742647    -0.01200
Br1188     Br  0.40473496  0.47961371  0.85549235    -0.01200
C1189       C  0.38557603  0.73589073  0.84052300    -0.02300
C1190       C  0.34554076  0.69485780  0.83401696     0.07400
C1191       C  0.29369667  0.73196019  0.82799632    -0.02400
C1192       C  0.29347823  0.80089384  0.82850302    -0.02400
C1193       C  0.34656148  0.83518800  0.83392864     0.07500
C1194       C  0.39530997  0.79260389  0.83309604    -0.02600
Br1195     Br  0.41257006  0.78007877  0.81268847    -0.01100
Br1196     Br  0.35899181  0.74256809  0.86018945    -0.01200
Br1197     Br  0.22468643  0.84461750  0.82013728    -0.01200
Br1198     Br  0.22175465  0.69708394  0.81963018    -0.01200
C1199       C  0.32256859  0.58933240  0.81021986    -0.02300
C1200       C  0.31745077  0.58120894  0.82556416     0.07400
C1201       C  0.26743255  0.54155786  0.82995032    -0.02400
C1202       C  0.22073568  0.52717328  0.81992856    -0.02400
C1203       C  0.22284234  0.55030077  0.80571715     0.07500
C1204       C  0.26981907  0.59036166  0.80182342    -0.02600
Br1205     Br  0.27311953  0.62832735  0.78290373    -0.01100
Br1206     Br  0.36737670  0.52735735  0.79941765    -0.01200
Br1207     Br  0.15152811  0.47625337  0.82533536    -0.01200
Br1208     Br  0.26146694  0.49480445  0.84769491    -0.01200
C1209       C  0.60783327  0.59384715  0.86589429    -0.02300
C1210       C  0.64668347  0.62789390  0.85614841     0.07400
C1211       C  0.69864368  0.65282473  0.86384519    -0.02400
C1212       C  0.70206179  0.65279322  0.87957643    -0.02400
C1213       C  0.65702992  0.62246990  0.88864415     0.07500
C1214       C  0.62049846  0.58268643  0.88062305    -0.02600
Br1215     Br  0.60242105  0.50184912  0.88766229    -0.01100
Br1216     Br  0.52450414  0.58181158  0.86421888    -0.01200
Br1217     Br  0.77488604  0.68532170  0.88819591    -0.01200
Br1218     Br  0.76933068  0.68433062  0.85359215    -0.01200
C1219       C  0.69277199  0.81322982  0.82790169    -0.02300
C1220       C  0.65587641  0.84992384  0.83786926     0.07400
C1221       C  0.62534524  0.81223134  0.84837318    -0.02400
C1222       C  0.60992255  0.75079858  0.84561077    -0.02400
C1223       C  0.64623138  0.71229128  0.83667958     0.07500
C1224       C  0.69169723  0.74624513  0.82821351    -0.02600
Br1225     Br  0.75751999  0.70625534  0.81754655    -0.01100
Br1226     Br  0.75376265  0.84972411  0.81517752    -0.01200
Br1227     Br  0.52824979  0.72704284  0.85118261    -0.01200
Br1228     Br  0.59107078  0.84538804  0.86563507    -0.01200
C1229       C  0.53888894  0.56280335  0.83430667    -0.02300
C1230       C  0.56694413  0.62171321  0.83298781     0.07400
C1231       C  0.53265511  0.65916901  0.82303854    -0.02400
C1232       C  0.46767779  0.64991481  0.82122836    -0.02400
C1233       C  0.43425681  0.60912869  0.83059051     0.07500
C1234       C  0.47339152  0.55601931  0.83251246    -0.02600
Br1235     Br  0.45362071  0.47822341  0.82389477    -0.01100
Br1236     Br  0.58782810  0.49070638  0.83897647    -0.01200
Br1237     Br  0.44482749  0.65060932  0.80100026    -0.01200
Br1238     Br  0.57671705  0.70414778  0.80794360    -0.01200
C1239       C  0.72064640  0.58238462  0.80346368    -0.02300
C1240       C  0.77142483  0.54935663  0.80831687     0.07400
C1241       C  0.77727487  0.53835186  0.82327326    -0.02400
C1242       C  0.73221158  0.56050014  0.83337517    -0.02400
C1243       C  0.68065816  0.59695547  0.82846932     0.07500
C1244       C  0.67148361  0.59376313  0.81298822    -0.02600
Br1245     Br  0.60104605  0.55456591  0.80441116    -0.01100
Br1246     Br  0.71179398  0.60297425  0.78314216    -0.01200
Br1247     Br  0.73774334  0.52396801  0.85244491    -0.01200
Br1248     Br  0.84985876  0.49500204  0.82975606    -0.01200
loop_ 
_geom_bond_atom_site_label_1 
_geom_bond_atom_site_label_2 
_geom_bond_distance 
_geom_bond_site_symmetry_2 
_ccdc_geom_bond_type 
C1         C1210   1.660       .  S
C1         C1223   1.640       .  S
C1         C1230   1.634       .  S
C1         C1243   1.613       .  S
C2         C1180   1.668       .  S
C2         C1190   1.672       .  S
C2         C1200   1.603       .  S
C2         C1233   1.680       .  S
C3         C1150   1.619       .  S
C3         C1160   1.667       .  S
C3         C1170   1.614       .  S
C3         C1220   1.668       .  S
C4         C1130   1.656       .  S
C4         C1140   1.604       .  S
C4         C1163   1.657       .  S
C4         C1193   1.691       .  S
C5         C1100   1.656       .  S
C5         C1110   1.689       .  S
C5         C1123   1.593       .  S
C5         C1213   1.629       .  S
C6         C1080   1.689       .  S
C6         C1093   1.606       .  S
C6         C1113   1.658       .  S
C6         C1183   1.650       .  S
C7         C1060   1.682       .  S
C7         C1070   1.613       .  S
C7         C1103   1.638       .  S
C7         C1153   1.627       .  S
C8         C1050   1.628       .  S
C8         C1063   1.665       .  S
C8         C1083   1.647       .  S
C8         C1133   1.660       .  S
In9          O11   2.241   1_565  S
In9          O12   2.283       .  S
In9          O20   2.247       .  S
In9          O14   2.245       .  S
In9          O16   2.237       .  S
In9          O17   2.307       .  S
In9          O18   2.244       .  S
In9          O21   2.256       .  S
C10          O16   1.259       .  A
C10          O18   1.260       .  A
C10          C62   1.459       .  S
O11          C19   1.256       .  A
O12          C19   1.266   1_565  A
C13          O20   1.265       .  A
C13          O14   1.259       .  A
C13        C1040   1.504   1_565  S
C15          O17   1.266       .  A
C15          O21   1.258       .  A
C15          C45   1.488       .  S
C19          C32   1.473       .  S
In22         O24   2.266       .  S
In22         O25   2.258       .  S
In22         O33   2.232       .  S
In22         O27   2.258       .  S
In22         O29   2.243       .  S
In22         O30   2.279       .  S
In22         O31   2.228       .  S
In22         O34   2.256       .  S
C23          O29   1.262       .  A
C23          O31   1.258       .  A
C23          C75   1.455       .  S
O24          C32   1.258       .  A
O25          C32   1.263       .  A
C26          O33   1.264       .  A
C26          O27   1.261       .  A
C26        C1030   1.483       .  S
C28          O30   1.264       .  A
C28          O34   1.261       .  A
C28          C58   1.481       .  S
In35         O37   2.265       .  S
In35         O38   2.309       .  S
In35         O46   2.262       .  S
In35         O40   2.267       .  S
In35         O42   2.263       .  S
In35         O43   2.257       .  S
In35         O44   2.236       .  S
In35         O47   2.274       .  S
C36          O42   1.259       .  A
C36          O44   1.256       .  A
C36          C88   1.460       .  S
O37          C45   1.257       .  A
O38          C45   1.261       .  A
C39          O46   1.265       .  A
C39          O40   1.258       .  A
C39        C1020   1.502       .  S
C41          O43   1.262       .  A
C41          O47   1.261       .  A
C41          C54   1.475       .  S
In48         O50   2.257       .  S
In48         O51   2.282       .  S
In48         O59   2.289       .  S
In48         O53   2.242       .  S
In48         O55   2.262       .  S
In48         O56   2.288       .  S
In48         O57   2.247       .  S
In48         O60   2.253       .  S
C49          O55   1.260       .  A
C49          O57   1.257       .  A
C49         C101   1.465       .  S
O50          C58   1.259       .  A
O51          C58   1.263       .  A
C52          O59   1.266       .  A
C52          O53   1.259       .  A
C52        C1010   1.491       .  S
C54          O56   1.262       .  A
C54          O60   1.256       .  A
In61         O63   2.242       .  S
In61         O64   2.285       .  S
In61         O72   2.260       .  S
In61         O66   2.228       .  S
In61         O68   2.239       .  S
In61         O69   2.276       .  S
In61         O70   2.247       .  S
In61         O73   2.248   1_565  S
C62          O68   1.259       .  A
C62          O70   1.259       .  A
O63          C71   1.257       .  A
O64          C71   1.263       .  A
C65          O72   1.265       .  A
C65          O66   1.258       .  A
C65        C1000   1.481   1_565  S
C67          O69   1.264   1_545  A
C67          O73   1.258       .  A
C67          C80   1.474       .  S
C71          C93   1.474       .  S
In74         O76   2.228       .  S
In74         O77   2.286       .  S
In74         O85   2.263       .  S
In74         O79   2.199       .  S
In74         O81   2.241       .  S
In74         O82   2.266       .  S
In74         O83   2.243       .  S
In74         O86   2.277       .  S
C75          O81   1.256       .  A
C75          O83   1.258       .  A
O76          C84   1.255       .  A
O77          C84   1.263       .  A
C78          O85   1.268       .  A
C78          O79   1.258       .  A
C78         C990   1.469       .  S
C80          O82   1.258       .  A
C80          O86   1.256       .  A
C84         C106   1.470       .  S
In87         O89   2.252       .  S
In87         O90   2.256       .  S
In87         O98   2.257       .  S
In87         O92   2.219       .  S
In87         O94   2.258       .  S
In87         O95   2.283       .  S
In87         O96   2.235       .  S
In87         O99   2.241       .  S
C88          O94   1.259       .  A
C88          O96   1.257       .  A
O89          C97   1.258       .  A
O90          C97   1.261       .  A
C91          O98   1.265       .  A
C91          O92   1.259       .  A
C91         C980   1.474       .  S
C93          O95   1.262       .  A
C93          O99   1.257       .  A
C97         C110   1.466       .  S
In100       O102   2.247       .  S
In100       O103   2.256       .  S
In100       O111   2.262       .  S
In100       O105   2.226       .  S
In100       O107   2.258       .  S
In100       O108   2.279       .  S
In100       O109   2.243       .  S
In100       O112   2.232       .  S
C101        O107   1.261       .  A
C101        O109   1.259       .  A
O102        C110   1.259       .  A
O103        C110   1.262       .  A
C104        O111   1.263       .  A
C104        O105   1.259       .  A
C104        C973   1.477       .  S
C106        O108   1.262       .  A
C106        O112   1.258       .  A
In113       O115   2.264       .  S
In113       O116   2.257       .  S
In113       O124   2.248       .  S
In113       O118   2.242       .  S
In113       O120   2.236       .  S
In113       O121   2.291       .  S
In113       O122   2.234       .  S
In113       O125   2.227       .  S
C114        O120   1.256       .  A
C114        O122   1.257       .  A
C114        C192   1.450       .  S
O115        C123   1.260       .  A
O116        C123   1.260       .  A
C117        O124   1.268       .  A
C117        O118   1.256       .  A
C117        C960   1.496       .  S
C119        O121   1.261       .  A
C119        O125   1.253       .  A
C119        C149   1.468       .  S
C123        C136   1.470       .  S
In126       O128   2.253       .  S
In126       O129   2.263       .  S
In126       O137   2.261       .  S
In126       O131   2.255       .  S
In126       O133   2.263       .  S
In126       O134   2.270       .  S
In126       O135   2.244       .  S
In126       O138   2.254       .  S
C127        O133   1.262       .  A
C127        O135   1.257       .  A
C127        C205   1.466       .  S
O128        C136   1.259       .  A
O129        C136   1.261       .  A
C130        O137   1.263       .  A
C130        O131   1.261       .  A
C130       C1143   1.490       .  S
C132        O134   1.262       .  A
C132        O138   1.260       .  A
C132        C162   1.475   1_455  S
In139       O141   2.220       .  S
In139       O142   2.277       .  S
In139       O150   2.234       .  S
In139       O144   2.228       .  S
In139       O146   2.248       .  S
In139       O147   2.256       .  S
In139       O148   2.231       .  S
In139       O151   2.253       .  S
C140        O146   1.260       .  A
C140        O148   1.258       .  A
C140        C166   1.457       .  S
O141        C149   1.259       .  A
O142        C149   1.265       .  A
C143        O150   1.264       .  A
C143        O144   1.262       .  A
C143        C950   1.483       .  S
C145        O147   1.262       .  A
C145        O151   1.257       .  A
C145        C158   1.467       .  S
In152       O154   2.253       .  S
In152       O155   2.274       .  S
In152       O163   2.255       .  S
In152       O157   2.219       .  S
In152       O159   2.254       .  S
In152       O160   2.262       .  S
In152       O161   2.237       .  S
In152       O164   2.241       .  S
C153        O159   1.260       .  A
C153        O161   1.259       .  A
C153        C179   1.462       .  S
O154        C162   1.259       .  A
O155        C162   1.263       .  A
C156        O163   1.263       .  A
C156        O157   1.259       .  A
C156       C1173   1.475       .  S
C158        O160   1.264       .  A
C158        O164   1.258       .  A
In165       O167   2.234       .  S
In165       O168   2.281       .  S
In165       O176   2.279       .  S
In165       O170   2.239       .  S
In165       O172   2.243       .  S
In165       O173   2.293       .  S
In165       O174   2.237       .  S
In165       O177   2.253       .  S
C166        O172   1.260       .  A
C166        O174   1.259       .  A
O167        C175   1.257       .  A
O168        C175   1.263       .  A
C169        O176   1.265       .  A
C169        O170   1.257       .  A
C169        C943   1.488       .  S
C171        O173   1.263       .  A
C171        O177   1.258       .  A
C171        C201   1.481       .  S
C175        C188   1.469       .  S
In178       O180   2.278       .  S
In178       O181   2.244       .  S
In178       O189   2.254       .  S
In178       O183   2.235       .  S
In178       O185   2.265       .  S
In178       O186   2.262       .  S
In178       O187   2.234       .  S
In178       O190   2.219       .  S
C179        O185   1.261       .  A
C179        O187   1.256       .  A
O180        C188   1.259       .  A
O181        C188   1.257       .  A
C182        O189   1.265       .  A
C182        O183   1.262       .  A
C182       C1240   1.480       .  S
C184        O186   1.261       .  A
C184        O190   1.258       .  A
C184        C214   1.460   1_655  S
In191       O193   2.246       .  S
In191       O194   2.287       .  S
In191       O202   2.228       .  S
In191       O196   2.242       .  S
In191       O198   2.236       .  S
In191       O199   2.264       .  S
In191       O200   2.228       .  S
In191       O203   2.253       .  S
C192        O198   1.259       .  A
C192        O200   1.257       .  A
O193        C201   1.260       .  A
O194        C201   1.266       .  A
C195        O202   1.263       .  A
C195        O196   1.258       .  A
C195        C930   1.486       .  S
C197        O199   1.261       .  A
C197        O203   1.257       .  A
C197        C210   1.469       .  S
In204       O206   2.218       .  S
In204       O207   2.266       .  S
In204       O215   2.259       .  S
In204       O209   2.194       .  S
In204       O211   2.255       .  S
In204       O212   2.260       .  S
In204       O213   2.250       .  S
In204       O216   2.254       .  S
C205        O211   1.259       .  A
C205        O213   1.260       .  A
O206        C214   1.256       .  A
O207        C214   1.263       .  A
C208        O215   1.263       .  A
C208        O209   1.259       .  A
C208       C1203   1.467       .  S
C210        O212   1.261       .  A
C210        O216   1.258       .  A
C217        C900   1.674       .  S
C217        C910   1.663       .  S
C217        C920   1.675       .  S
C217        C940   1.617       .  S
C218        C883   1.649       .  S
C218        C890   1.639       .  S
C218        C923   1.685       .  S
C218        C933   1.603       .  S
C219        C860   1.654       .  S
C219        C870   1.642       .  S
C219        C913   1.617       .  S
C219        C953   1.609       .  S
C220        C850   1.680       .  S
C220        C873   1.660       .  S
C220        C893   1.647       .  S
C220        C963   1.628       .  S
C221        C833   1.679       .  S
C221        C840   1.627       .  S
C221        C880   1.638       .  S
C221       C1013   1.606       .  S
C222        C823   1.637       .  S
C222        C843   1.662       .  S
C222        C853   1.719       .  S
C222       C1033   1.614       .  S
C223        C810   1.647       .  S
C223        C830   1.643       .  S
C223        C903   1.656       .  S
C223        C970   1.616       .  S
C224        C813   1.672       .  S
C224        C820   1.662       .  S
C224        C863   1.639       .  S
C224        C993   1.575       .  S
In225       O227   2.234       .  S
In225       O228   2.269       .  S
In225       O236   2.265       .  S
In225       O230   2.233       .  S
In225       O232   2.270       .  S
In225       O233   2.255       .  S
In225       O234   2.242       .  S
In225       O237   2.256       .  S
C226        O232   1.260       .  A
C226        O234   1.256       .  A
C226        C291   1.466   1_655  S
O227        C235   1.258       .  A
O228        C235   1.261       .  A
C229        O236   1.266       .  A
C229        O230   1.260       .  A
C229       C1073   1.485       .  S
C231        O233   1.260       .  A
C231        O237   1.258       .  A
C231        C244   1.467   1_556  S
C235        C270   1.465       .  S
In238       O240   2.251       .  S
In238       O241   2.289       .  S
In238       O249   2.259       .  S
In238       O243   2.224       .  S
In238       O245   2.239       .  S
In238       O246   2.263       .  S
In238       O247   2.242       .  S
In238       O250   2.247   1_565  S
C239        O245   1.258       .  A
C239        O247   1.259       .  A
C239        C278   1.456   1_655  S
O240        C248   1.257       .  A
O241        C248   1.263       .  A
C242        O249   1.264   1_545  A
C242        O243   1.257   1_545  A
C242        C800   1.475       .  S
C244        O246   1.262   1_545  A
C244        O250   1.257       .  A
C248        C257   1.479       .  S
In251       O253   2.244       .  S
In251       O254   2.261       .  S
In251       O262   2.236       .  S
In251       O256   2.232       .  S
In251       O258   2.238       .  S
In251       O259   2.290       .  S
In251       O260   2.228       .  S
In251       O263   2.252       .  S
C252        O258   1.259       .  A
C252        O260   1.257       .  A
C252        C304   1.451   1_655  S
O253        C261   1.254       .  A
O254        C261   1.261       .  A
C255        O262   1.267       .  A
C255        O256   1.260       .  A
C255        C790   1.474       .  S
C257        O259   1.263       .  A
C257        O263   1.258       .  A
C261        C274   1.462   1_554  S
In264       O266   2.240       .  S
In264       O267   2.249       .  S
In264       O275   2.241       .  S
In264       O269   2.213       .  S
In264       O271   2.244       .  S
In264       O272   2.265       .  S
In264       O273   2.248       .  S
In264       O276   2.227       .  S
C265        O271   1.261       .  A
C265        O273   1.260       .  A
C265        C317   1.463   1_655  S
O266        C274   1.258       .  A
O267        C274   1.264       .  A
C268        O275   1.262       .  A
C268        O269   1.260       .  A
C268       C1120   1.470       .  S
C270        O272   1.264       .  A
C270        O276   1.258       .  A
In277       O279   2.238   1_565  S
In277       O280   2.251       .  S
In277       O288   2.240       .  S
In277       O282   2.229       .  S
In277       O284   2.239       .  S
In277       O285   2.282       .  S
In277       O286   2.237       .  S
In277       O289   2.222       .  S
C278        O284   1.260       .  A
C278        O286   1.259       .  A
O279        C287   1.259       .  A
O280        C287   1.263   1_565  A
C281        O288   1.264       .  A
C281        O282   1.259       .  A
C281        C783   1.480   1_565  S
C283        O285   1.263       .  A
C283        O289   1.256       .  A
C283        C313   1.467       .  S
C287        C300   1.463   1_554  S
In290       O292   2.246       .  S
In290       O293   2.248       .  S
In290       O301   2.258       .  S
In290       O295   2.221       .  S
In290       O297   2.268       .  S
In290       O298   2.262       .  S
In290       O299   2.243       .  S
In290       O302   2.224       .  S
C291        O297   1.260       .  A
C291        O299   1.258       .  A
O292        C300   1.259       .  A
O293        C300   1.261       .  A
C294        O301   1.262       .  A
C294        O295   1.260       .  A
C294       C1053   1.472       .  S
C296        O298   1.260       .  A
C296        O302   1.258       .  A
C296        C326   1.460       .  S
In303       O305   2.223       .  S
In303       O306   2.282       .  S
In303       O314   2.228       .  S
In303       O308   2.237       .  S
In303       O310   2.238       .  S
In303       O311   2.254       .  S
In303       O312   2.229       .  S
In303       O315   2.255       .  S
C304        O310   1.258       .  A
C304        O312   1.258       .  A
O305        C313   1.256       .  A
O306        C313   1.262       .  A
C307        O314   1.265       .  A
C307        O308   1.258       .  A
C307        C773   1.488       .  S
C309        O311   1.261       .  A
C309        O315   1.258       .  A
C309        C322   1.466   1_554  S
In316       O318   2.220       .  S
In316       O319   2.265       .  S
In316       O327   2.271       .  S
In316       O321   2.202       .  S
In316       O323   2.248       .  S
In316       O324   2.262       .  S
In316       O325   2.252       .  S
In316       O328   2.241       .  S
C317        O323   1.258       .  A
C317        O325   1.259       .  A
O318        C326   1.257       .  A
O319        C326   1.263       .  A
C320        O327   1.265       .  A
C320        O321   1.259       .  A
C320       C1090   1.471       .  S
C322        O324   1.262       .  A
C322        O328   1.257       .  A
C329        C740   1.654       .  S
C329        C750   1.678       .  S
C329        C763   1.614       .  S
C329       C1003   1.597       .  S
C330        C723   1.643       .  S
C330        C730   1.640       .  S
C330        C760   1.651       .  S
C330        C983   1.595       .  S
C331        C700   1.673       .  S
C331        C713   1.666       .  S
C331        C753   1.668       .  S
C331       C1043   1.608       .  S
C332        C690   1.659       .  S
C332        C710   1.670       .  S
C332        C733   1.598       .  S
C332       C1023   1.611       .  S
C333        C660   1.653       .  S
C333        C673   1.644       .  S
C333        C680   1.611       .  S
C333        C703   1.655       .  S
C334        C643   1.643       .  S
C334        C650   1.623       .  S
C334        C663   1.654       .  S
C334        C743   1.665       .  S
C335        C620   1.659       .  S
C335        C630   1.619       .  S
C335        C640   1.689       .  S
C335        C720   1.632       .  S
C336        C613   1.569       .  S
C336        C623   1.659       .  S
C336        C670   1.679       .  S
C336        C693   1.636       .  S
In337       O339   2.247       .  S
In337       O340   2.275       .  S
In337       O348   2.235   1_565  S
In337       O342   2.261       .  S
In337       O344   2.238       .  S
In337       O345   2.284       .  S
In337       O346   2.249       .  S
In337       O349   2.261       .  S
C338        O344   1.257       .  A
C338        O346   1.259       .  A
C338        C403   1.458       .  S
O339        C347   1.259       .  A
O340        C347   1.262       .  A
C341        O348   1.265   1_565  A
C341        O342   1.256       .  A
C341        C600   1.489   1_565  S
C343        O345   1.260       .  A
C343        O349   1.258       .  A
C343        C386   1.478   1_455  S
C347        C360   1.471       .  S
In350       O352   2.277       .  S
In350       O353   2.254       .  S
In350       O361   2.269   1_565  S
In350       O355   2.223       .  S
In350       O357   2.268       .  S
In350       O358   2.291       .  S
In350       O359   2.247       .  S
In350       O362   2.239       .  S
C351        O357   1.260       .  A
C351        O359   1.257       .  A
C351        C390   1.467       .  S
O352        C360   1.258       .  A
O353        C360   1.257       .  A
C354        O361   1.266   1_565  A
C354        O355   1.262       .  A
C354        C683   1.483   1_565  S
C356        O358   1.262       .  A
C356        O362   1.257       .  A
C356        C373   1.474       .  S
In363       O365   2.234       .  S
In363       O366   2.291       .  S
In363       O374   2.248   1_565  S
In363       O368   2.224       .  S
In363       O370   2.232       .  S
In363       O371   2.257       .  S
In363       O372   2.240       .  S
In363       O375   2.248       .  S
C364        O370   1.256       .  A
C364        O372   1.258       .  A
C364        C416   1.453       .  S
O365        C373   1.255       .  A
O366        C373   1.263       .  A
C367        O374   1.268   1_565  A
C367        O368   1.258       .  A
C367        C653   1.471   1_565  S
C369        O371   1.262       .  A
C369        O375   1.256       .  A
C369        C382   1.463       .  S
In376       O378   2.255       .  S
In376       O379   2.278       .  S
In376       O387   2.267   1_565  S
In376       O381   2.231       .  S
In376       O383   2.266       .  S
In376       O384   2.251       .  S
In376       O385   2.244       .  S
In376       O388   2.236       .  S
C377        O383   1.262       .  A
C377        O385   1.258       .  A
C377        C429   1.468       .  S
O378        C386   1.259       .  A
O379        C386   1.263       .  A
C380        O387   1.263       .  A
C380        O381   1.262   1_545  A
C380        C590   1.484       .  S
C382        O384   1.264       .  A
C382        O388   1.259       .  A
In389       O391   2.225       .  S
In389       O392   2.289       .  S
In389       O400   2.262       .  S
In389       O394   2.212       .  S
In389       O396   2.262       .  S
In389       O397   2.254       .  S
In389       O398   2.245       .  S
In389       O401   2.253       .  S
C390        O396   1.260       .  A
C390        O398   1.258       .  A
O391        C399   1.255       .  A
O392        C399   1.264       .  A
C393        O400   1.265       .  A
C393        O394   1.258       .  A
C393        C610   1.487       .  S
C395        O397   1.263       .  A
C395        O401   1.258       .  A
C395        C408   1.467       .  S
C399        C421   1.471       .  S
In402       O404   2.233       .  S
In402       O405   2.270       .  S
In402       O413   2.268       .  S
In402       O407   2.213       .  S
In402       O409   2.240       .  S
In402       O410   2.264       .  S
In402       O411   2.243       .  S
In402       O414   2.239       .  S
C403        O409   1.260       .  A
C403        O411   1.259       .  A
O404        C412   1.258       .  A
O405        C412   1.264       .  A
C406        O413   1.264       .  A
C406        O407   1.259       .  A
C406        C580   1.471       .  S
C408        O410   1.264       .  A
C408        O414   1.257       .  A
C412        C434   1.469   1_455  S
In415       O417   2.258       .  S
In415       O418   2.258       .  S
In415       O426   2.256       .  S
In415       O420   2.246       .  S
In415       O422   2.239       .  S
In415       O423   2.286       .  S
In415       O424   2.241       .  S
In415       O427   2.233       .  S
C416        O422   1.258       .  A
C416        O424   1.255       .  A
O417        C425   1.259       .  A
O418        C425   1.260       .  A
C419        O426   1.266       .  A
C419        O420   1.258       .  A
C419        C633   1.485       .  S
C421        O423   1.261       .  A
C421        O427   1.258       .  A
C425        C438   1.469       .  S
In428       O430   2.255       .  S
In428       O431   2.261       .  S
In428       O439   2.262       .  S
In428       O433   2.236       .  S
In428       O435   2.265       .  S
In428       O436   2.273       .  S
In428       O437   2.250       .  S
In428       O440   2.242       .  S
C429        O435   1.259       .  A
C429        O437   1.259       .  A
O430        C438   1.259       .  A
O431        C438   1.261       .  A
C432        O439   1.263       .  A
C432        O433   1.259       .  A
C432        C570   1.479       .  S
C434        O436   1.260       .  A
C434        O440   1.258       .  A
C441        C540   1.655       .  S
C441        C550   1.665       .  S
C441        C560   1.663       .  S
C441        C583   1.633       .  S
C442        C520   1.681       .  S
C442        C533   1.636       .  S
C442        C553   1.628       .  S
C442        C603   1.609       .  S
C443        C500   1.634       .  S
C443        C510   1.667       .  S
C443        C530   1.633       .  S
C443        C593   1.616       .  S
C444        C490   1.653       .  S
C444        C513   1.627       .  S
C444        C563   1.671       .  S
C444        C573   1.580       .  S
C445        C470   1.689       .  S
C445        C480   1.673       .  S
C445        C503   1.677       .  S
C445        C803   1.598       .  S
C446        C460   1.613       .  S
C446        C483   1.655       .  S
C446        C493   1.670       .  S
C446        C793   1.623       .  S
C447        C450   1.665       .  S
C447        C473   1.657       .  S
C447        C523   1.636       .  S
C447        C780   1.610       .  S
C448        C453   1.627       .  S
C448        C463   1.628       .  S
C448        C543   1.668       .  S
C448        C770   1.606       .  S
C449        C450   1.449       .  A
C449        C454   1.419       .  A
C449       Br456   1.870       .  S
C450        C451   1.446       .  A
C451        C452   1.453       .  A
C451       Br458   1.937       .  S
C452        C453   1.440       .  A
C452       Br457   1.917       .  S
C453        C454   1.396       .  A
C454       Br455   1.932       .  S
C459        C460   1.417       .  A
C459        C464   1.436       .  A
C459       Br466   1.951       .  S
C460        C461   1.420       .  A
C461        C462   1.401       .  A
C461       Br468   1.966       .  S
C462        C463   1.438       .  A
C462       Br467   1.875       .  S
C463        C464   1.454       .  A
C464       Br465   1.934       .  S
C469        C470   1.436       .  A
C469        C474   1.448       .  A
C469       Br476   1.960       .  S
C470        C471   1.447       .  A
C471        C472   1.447       .  A
C471       Br478   1.977       .  S
C472        C473   1.451       .  A
C472       Br477   1.936       .  S
C473        C474   1.460       .  A
C474       Br475   1.934   1_545  S
C479        C480   1.472       .  A
C479        C484   1.471       .  A
C479       Br486   1.959       .  S
C480        C481   1.406       .  A
C481        C482   1.393       .  A
C481       Br488   1.936       .  S
C482        C483   1.428       .  A
C482       Br487   1.853       .  S
C483        C484   1.457       .  A
C484       Br485   1.932       .  S
C489        C490   1.441       .  A
C489        C494   1.453       .  A
C489       Br496   1.906       .  S
C490        C491   1.401       .  A
C491        C492   1.434       .  A
C491       Br498   1.936       .  S
C492        C493   1.463       .  A
C492       Br497   1.911       .  S
C493        C494   1.444       .  A
C494       Br495   1.938       .  S
C499        C500   1.429       .  A
C499        C504   1.445       .  A
C499       Br506   1.922       .  S
C500        C501   1.436       .  A
C501        C502   1.448       .  A
C501       Br508   1.953       .  S
C502        C503   1.454       .  A
C502       Br507   1.920       .  S
C503        C504   1.444       .  A
C504       Br505   1.930       .  S
C509        C510   1.430       .  A
C509        C514   1.389       .  A
C509       Br516   1.921       .  S
C510        C511   1.442       .  A
C511        C512   1.463       .  A
C511       Br518   1.946       .  S
C512        C513   1.478       .  A
C512       Br517   1.957       .  S
C513        C514   1.386       .  A
C514       Br515   1.876       .  S
C519        C520   1.420       .  A
C519        C524   1.391       .  A
C519       Br526   1.912       .  S
C520        C521   1.458       .  A
C521        C522   1.478       .  A
C521       Br528   1.926       .  S
C522        C523   1.464       .  A
C522       Br527   1.930       .  S
C523        C524   1.420       .  A
C524       Br525   1.896       .  S
C529        C530   1.421       .  A
C529        C534   1.397       .  A
C529       Br536   1.934       .  S
C530        C531   1.453       .  A
C531        C532   1.457       .  A
C531       Br538   1.941       .  S
C532        C533   1.446       .  A
C532       Br537   1.938       .  S
C533        C534   1.419       .  A
C534       Br535   1.899       .  S
C539        C540   1.459       .  A
C539        C544   1.490       .  A
C539       Br546   1.926       .  S
C540        C541   1.404       .  A
C541        C542   1.382       .  A
C541       Br548   1.908       .  S
C542        C543   1.413       .  A
C542       Br547   1.800       .  S
C543        C544   1.469       .  A
C544       Br545   1.916       .  S
C549        C550   1.425       .  A
C549        C554   1.438       .  A
C549       Br556   1.940       .  S
C550        C551   1.459       .  A
C551        C552   1.444       .  A
C551       Br558   1.895       .  S
C552        C553   1.414       .  A
C552       Br557   1.941       .  S
C553        C554   1.447       .  A
C554       Br555   1.928       .  S
C559        C560   1.464       .  A
C559        C564   1.441       .  A
C559       Br566   1.911       .  S
C560        C561   1.453       .  A
C561        C562   1.449       .  A
C561       Br568   1.975       .  S
C562        C563   1.438       .  A
C562       Br567   1.920       .  S
C563        C564   1.412       .  A
C564       Br565   1.946       .  S
C569        C570   1.410       .  A
C569        C574   1.418       .  A
C569       Br576   1.935       .  S
C570        C571   1.407       .  A
C571        C572   1.396       .  A
C571       Br578   1.923       .  S
C572        C573   1.415       .  A
C572       Br577   1.922       .  S
C573        C574   1.456       .  A
C574       Br575   1.954       .  S
C579        C580   1.389       .  A
C579        C584   1.422       .  A
C579       Br586   1.941       .  S
C580        C581   1.384       .  A
C581        C582   1.401       .  A
C581       Br588   1.939       .  S
C582        C583   1.456       .  A
C582       Br587   1.921       .  S
C583        C584   1.460       .  A
C584       Br585   1.897       .  S
C589        C590   1.396       .  A
C589        C594   1.419       .  A
C589       Br596   1.939       .  S
C590        C591   1.388       .  A
C591        C592   1.417       .  A
C591       Br598   1.952       .  S
C592        C593   1.472       .  A
C592       Br597   1.949       .  S
C593        C594   1.448       .  A
C594       Br595   1.917       .  S
C599        C600   1.406   1_565  A
C599        C604   1.425   1_565  A
C599       Br606   1.934       .  S
C600        C601   1.383       .  A
C601        C602   1.400       .  A
C601       Br608   1.948       .  S
C602        C603   1.464       .  A
C602       Br607   1.938       .  S
C603        C604   1.446       .  A
C604       Br605   1.919   1_545  S
C609        C610   1.409       .  A
C609        C614   1.414       .  A
C609       Br616   1.932       .  S
C610        C611   1.412       .  A
C611        C612   1.409       .  A
C611       Br618   1.942       .  S
C612        C613   1.435       .  A
C612       Br617   1.958       .  S
C613        C614   1.428       .  A
C614       Br615   1.942       .  S
C619        C620   1.483       .  A
C619        C624   1.471   1_655  A
C619       Br626   1.928       .  S
C620        C621   1.386       .  A
C621        C622   1.410   1_655  A
C621       Br628   1.845       .  S
C622        C623   1.385       .  A
C622       Br627   1.929       .  S
C623        C624   1.445       .  A
C624       Br625   1.948       .  S
C629        C630   1.436       .  A
C629        C634   1.412       .  A
C629       Br636   1.906       .  S
C630        C631   1.447       .  A
C631        C632   1.414       .  A
C631       Br638   1.936       .  S
C632        C633   1.399       .  A
C632       Br637   1.942       .  S
C633        C634   1.393       .  A
C634       Br635   1.938       .  S
C639        C640   1.441       .  A
C639        C644   1.445       .  A
C639       Br646   1.914       .  S
C640        C641   1.478       .  A
C641        C642   1.427       .  A
C641       Br648   1.926       .  S
C642        C643   1.401       .  A
C642       Br647   1.947       .  S
C643        C644   1.449       .  A
C644       Br645   1.936       .  S
C649        C650   1.470       .  A
C649        C654   1.424       .  A
C649       Br656   1.939       .  S
C650        C651   1.452       .  A
C651        C652   1.395       .  A
C651       Br658   1.935       .  S
C652        C653   1.385       .  A
C652       Br657   1.936       .  S
C653        C654   1.394       .  A
C654       Br655   1.945   1_545  S
C659        C660   1.404       .  A
C659        C664   1.423   1_455  A
C659       Br666   1.872       .  S
C660        C661   1.462       .  A
C661        C662   1.469   1_455  A
C661       Br668   1.931       .  S
C662        C663   1.448       .  A
C662       Br667   1.914       .  S
C663        C664   1.401       .  A
C664       Br665   1.852       .  S
C669        C670   1.463       .  A
C669        C674   1.490       .  A
C669       Br676   1.935       .  S
C670        C671   1.405       .  A
C671        C672   1.385       .  A
C671       Br678   1.954       .  S
C672        C673   1.426       .  A
C672       Br677   1.847       .  S
C673        C674   1.473       .  A
C674       Br675   1.918       .  S
C679        C680   1.441       .  A
C679        C684   1.417       .  A
C679       Br686   1.929       .  S
C680        C681   1.442       .  A
C681        C682   1.410       .  A
C681       Br688   1.943   1_545  S
C682        C683   1.400       .  A
C682       Br687   1.937   1_545  S
C683        C684   1.402       .  A
C684       Br685   1.934       .  S
C689        C690   1.421       .  A
C689        C694   1.431       .  A
C689       Br696   1.944       .  S
C690        C691   1.468       .  A
C691        C692   1.482       .  A
C691       Br698   1.936       .  S
C692        C693   1.497       .  A
C692       Br697   1.937       .  S
C693        C694   1.386       .  A
C694       Br695   1.919       .  S
C699        C700   1.431       .  A
C699        C704   1.453       .  A
C699       Br706   1.935   1_545  S
C700        C701   1.441       .  A
C701        C702   1.439       .  A
C701       Br708   1.916       .  S
C702        C703   1.436       .  A
C702       Br707   1.955       .  S
C703        C704   1.446       .  A
C704       Br705   1.929   1_545  S
C709        C710   1.475       .  A
C709        C714   1.512       .  A
C709       Br716   1.927       .  S
C710        C711   1.378       .  A
C711        C712   1.413       .  A
C711       Br718   1.930       .  S
C712        C713   1.388       .  A
C712       Br717   1.834       .  S
C713        C714   1.482       .  A
C714       Br715   1.920       .  S
C719        C720   1.409       .  A
C719        C724   1.442       .  A
C719       Br726   1.939       .  S
C720        C721   1.405       .  A
C721        C722   1.437       .  A
C721       Br728   1.953       .  S
C722        C723   1.460       .  A
C722       Br727   1.919       .  S
C723        C724   1.449       .  A
C724       Br725   1.924       .  S
C729        C730   1.446       .  A
C729        C734   1.452   1_655  A
C729       Br736   1.937       .  S
C730        C731   1.410       .  A
C731        C732   1.411   1_655  A
C731       Br738   1.868   1_655  S
C732        C733   1.393       .  A
C732       Br737   1.923       .  S
C733        C734   1.452       .  A
C734       Br735   1.918       .  S
C739        C740   1.447       .  A
C739        C744   1.433       .  A
C739       Br746   1.938       .  S
C740        C741   1.441       .  A
C741        C742   1.453       .  A
C741       Br748   1.925   1_545  S
C742        C743   1.446       .  A
C742       Br747   1.948   1_545  S
C743        C744   1.430       .  A
C744       Br745   1.938       .  S
C749        C750   1.449       .  A
C749        C754   1.463   1_655  A
C749       Br756   1.926       .  S
C750        C751   1.416       .  A
C751        C752   1.413   1_655  A
C751       Br758   1.790       .  S
C752        C753   1.424       .  A
C752       Br757   1.913       .  S
C753        C754   1.460       .  A
C754       Br755   1.909       .  S
C759        C760   1.395       .  A
C759        C764   1.392       .  A
C759       Br766   1.895       .  S
C760        C761   1.474       .  A
C761        C762   1.480       .  A
C761       Br768   1.938       .  S
C762        C763   1.468       .  A
C762       Br767   1.944       .  S
C763        C764   1.366       .  A
C764       Br765   1.882       .  S
C769        C770   1.439       .  A
C769        C774   1.403       .  A
C769       Br776   1.933       .  S
C770        C771   1.431       .  A
C771        C772   1.410       .  A
C771       Br778   1.931       .  S
C772        C773   1.412       .  A
C772       Br777   1.937       .  S
C773        C774   1.401       .  A
C774       Br775   1.938       .  S
C779        C780   1.453       .  A
C779        C784   1.412       .  A
C779       Br786   1.916       .  S
C780        C781   1.460       .  A
C781        C782   1.412   1_545  A
C781       Br788   1.928       .  S
C782        C783   1.390   1_565  A
C782       Br787   1.944       .  S
C783        C784   1.396       .  A
C784       Br785   1.945       .  S
C789        C790   1.391       .  A
C789        C794   1.417       .  A
C789       Br796   1.946       .  S
C790        C791   1.388       .  A
C791        C792   1.407       .  A
C791       Br798   1.942       .  S
C792        C793   1.458       .  A
C792       Br797   1.933       .  S
C793        C794   1.450       .  A
C794       Br795   1.907       .  S
C799        C800   1.392       .  A
C799        C804   1.412       .  A
C799       Br806   1.942   1_545  S
C800        C801   1.395       .  A
C801        C802   1.416       .  A
C801       Br808   1.945       .  S
C802        C803   1.460       .  A
C802       Br807   1.966       .  S
C803        C804   1.451       .  A
C804       Br805   1.935       .  S
C809        C810   1.443       .  A
C809        C814   1.436       .  A
C809       Br816   1.947       .  S
C810        C811   1.424       .  A
C811        C812   1.433       .  A
C811       Br818   1.937       .  S
C812        C813   1.456       .  A
C812       Br817   1.929       .  S
C813        C814   1.446       .  A
C814       Br815   1.927       .  S
C819        C820   1.449       .  A
C819        C824   1.457   1_665  A
C819       Br826   1.939   1_565  S
C820        C821   1.388       .  A
C821        C822   1.388   1_655  A
C821       Br828   1.930       .  S
C822        C823   1.452       .  A
C822       Br827   1.862       .  S
C823        C824   1.456   1_565  A
C824       Br825   1.962       .  S
C829        C830   1.400       .  A
C829        C834   1.394   1_655  A
C829       Br836   1.849       .  S
C830        C831   1.457       .  A
C831        C832   1.481   1_655  A
C831       Br838   1.926       .  S
C832        C833   1.475       .  A
C832       Br837   1.936       .  S
C833        C834   1.398       .  A
C834       Br835   1.858       .  S
C839        C840   1.424       .  A
C839        C844   1.449       .  A
C839       Br846   1.922       .  S
C840        C841   1.458       .  A
C841        C842   1.429       .  A
C841       Br848   1.924       .  S
C842        C843   1.409       .  A
C842       Br847   1.943       .  S
C843        C844   1.455       .  A
C844       Br845   1.918       .  S
C849        C850   1.406       .  A
C849        C854   1.425       .  A
C849       Br856   1.939   1_565  S
C850        C851   1.420       .  A
C851        C852   1.474       .  A
C851       Br858   1.954   1_565  S
C852        C853   1.488       .  A
C852       Br857   1.919       .  S
C853        C854   1.480       .  A
C854       Br855   1.920   1_565  S
C859        C860   1.451       .  A
C859        C864   1.467       .  A
C859       Br866   1.947       .  S
C860        C861   1.405       .  A
C861        C862   1.396       .  A
C861       Br868   1.886       .  S
C862        C863   1.412       .  A
C862       Br867   1.883       .  S
C863        C864   1.472       .  A
C864       Br865   1.950       .  S
C869        C870   1.397       .  A
C869        C874   1.398   1_655  A
C869       Br876   1.922   1_565  S
C870        C871   1.454       .  A
C871        C872   1.480   1_655  A
C871       Br878   1.929       .  S
C872        C873   1.476       .  A
C872       Br877   1.951       .  S
C873        C874   1.415       .  A
C874       Br875   1.823       .  S
C879        C880   1.430       .  A
C879        C884   1.405       .  A
C879       Br886   1.964       .  S
C880        C881   1.457       .  A
C881        C882   1.461       .  A
C881       Br888   1.941       .  S
C882        C883   1.446       .  A
C882       Br887   1.949       .  S
C883        C884   1.423       .  A
C884       Br885   1.853       .  S
C889        C890   1.416       .  A
C889        C894   1.445       .  A
C889       Br896   1.926       .  S
C890        C891   1.454       .  A
C891        C892   1.429       .  A
C891       Br898   1.945       .  S
C892        C893   1.448       .  A
C892       Br897   1.932       .  S
C893        C894   1.450       .  A
C894       Br895   1.914       .  S
C899        C900   1.454       .  A
C899        C904   1.439       .  A
C899       Br906   1.919       .  S
C900        C901   1.446       .  A
C901        C902   1.453       .  A
C901       Br908   1.939       .  S
C902        C903   1.446       .  A
C902       Br907   1.946       .  S
C903        C904   1.425       .  A
C904       Br905   1.942       .  S
C909        C910   1.442       .  A
C909        C914   1.437       .  A
C909       Br916   1.944       .  S
C910        C911   1.450       .  A
C911        C912   1.425       .  A
C911       Br918   1.891   1_655  S
C912        C913   1.411       .  A
C912       Br917   1.931       .  S
C913        C914   1.435       .  A
C914       Br915   1.922       .  S
C919        C920   1.408   1_455  A
C919        C924   1.411       .  A
C919       Br926   1.823   1_455  S
C920        C921   1.466   1_655  A
C921        C922   1.499       .  A
C921       Br928   1.926   1_455  S
C922        C923   1.478       .  A
C922       Br927   1.924       .  S
C923        C924   1.401       .  A
C924       Br925   1.926       .  S
C929        C930   1.411       .  A
C929        C934   1.424       .  A
C929       Br936   1.940       .  S
C930        C931   1.397       .  A
C931        C932   1.398       .  A
C931       Br938   1.944       .  S
C932        C933   1.444       .  A
C932       Br937   1.932       .  S
C933        C934   1.442       .  A
C934       Br935   1.922       .  S
C939        C940   1.455       .  A
C939        C944   1.418       .  A
C939       Br946   1.927       .  S
C940        C941   1.467       .  A
C941        C942   1.424       .  A
C941       Br948   1.940       .  S
C942        C943   1.394       .  A
C942       Br947   1.951       .  S
C943        C944   1.394       .  A
C944       Br945   1.944       .  S
C949        C950   1.396   1_565  A
C949        C954   1.420       .  A
C949       Br956   1.956       .  S
C950        C951   1.393       .  A
C951        C952   1.412       .  A
C951       Br958   1.942       .  S
C952        C953   1.446   1_545  A
C952       Br957   1.923       .  S
C953        C954   1.469       .  A
C954       Br955   1.939       .  S
C959        C960   1.407       .  A
C959        C964   1.427       .  A
C959       Br966   1.944       .  S
C960        C961   1.385   1_545  A
C961        C962   1.403       .  A
C961       Br968   1.947       .  S
C962        C963   1.459       .  A
C962       Br967   1.936       .  S
C963        C964   1.451   1_565  A
C964       Br965   1.924       .  S
C969        C970   1.464       .  A
C969        C974   1.423       .  A
C969       Br976   1.937       .  S
C970        C971   1.446       .  A
C971        C972   1.400       .  A
C971       Br978   1.929       .  S
C972        C973   1.391       .  A
C972       Br977   1.935       .  S
C973        C974   1.399       .  A
C974       Br975   1.945       .  S
C979        C980   1.393       .  A
C979        C984   1.416       .  A
C979       Br986   1.950       .  S
C980        C981   1.392       .  A
C981        C982   1.412       .  A
C981       Br988   1.939       .  S
C982        C983   1.447       .  A
C982       Br987   1.920       .  S
C983        C984   1.455       .  A
C984       Br985   1.924       .  S
C989        C990   1.402       .  A
C989        C994   1.419       .  A
C989       Br996   1.932       .  S
C990        C991   1.398   1_545  A
C991        C992   1.399       .  A
C991       Br998   1.939       .  S
C992        C993   1.423       .  A
C992       Br997   1.915       .  S
C993        C994   1.440   1_565  A
C994       Br995   1.949       .  S
C999       C1000   1.398       .  A
C999       C1004   1.412       .  A
C999      Br1006   1.937   1_545  S
C1000      C1001   1.398       .  A
C1001      C1002   1.417       .  A
C1001     Br1008   1.945       .  S
C1002      C1003   1.449       .  A
C1002     Br1007   1.935       .  S
C1003      C1004   1.441       .  A
C1004     Br1005   1.930       .  S
C1009      C1010   1.399       .  A
C1009      C1014   1.424       .  A
C1009     Br1016   1.935       .  S
C1010      C1011   1.398       .  A
C1011      C1012   1.414       .  A
C1011     Br1018   1.945       .  S
C1012      C1013   1.452       .  A
C1012     Br1017   1.933       .  S
C1013      C1014   1.450       .  A
C1014     Br1015   1.925       .  S
C1019      C1020   1.394       .  A
C1019      C1024   1.407       .  A
C1019     Br1026   1.942       .  S
C1020      C1021   1.411       .  A
C1021      C1022   1.424       .  A
C1021     Br1028   1.935       .  S
C1022      C1023   1.444       .  A
C1022     Br1027   1.926       .  S
C1023      C1024   1.456       .  A
C1024     Br1025   1.932       .  S
C1029      C1030   1.405       .  A
C1029      C1034   1.424       .  A
C1029     Br1036   1.936       .  S
C1030      C1031   1.395       .  A
C1031      C1032   1.401   1_545  A
C1031     Br1038   1.941       .  S
C1032      C1033   1.439       .  A
C1032     Br1037   1.939   1_565  S
C1033      C1034   1.438   1_565  A
C1034     Br1035   1.915       .  S
C1039      C1040   1.414       .  A
C1039      C1044   1.406       .  A
C1039     Br1046   1.932       .  S
C1040      C1041   1.408       .  A
C1041      C1042   1.414       .  A
C1041     Br1048   1.944   1_545  S
C1042      C1043   1.438       .  A
C1042     Br1047   1.910   1_545  S
C1043      C1044   1.425       .  A
C1044     Br1045   1.927       .  S
C1049      C1050   1.460   1_545  A
C1049      C1054   1.416       .  A
C1049     Br1056   1.935       .  S
C1050      C1051   1.463       .  A
C1051      C1052   1.413       .  A
C1051     Br1058   1.936       .  S
C1052      C1053   1.387   1_565  A
C1052     Br1057   1.947       .  S
C1053      C1054   1.387       .  A
C1054     Br1055   1.942       .  S
C1059      C1060   1.456       .  A
C1059      C1064   1.479       .  A
C1059     Br1066   1.935   1_565  S
C1060      C1061   1.418       .  A
C1061      C1062   1.405       .  A
C1061     Br1068   1.900       .  S
C1062      C1063   1.404       .  A
C1062     Br1067   1.830       .  S
C1063      C1064   1.463       .  A
C1064     Br1065   1.918   1_565  S
C1069      C1070   1.455   1_545  A
C1069      C1074   1.416       .  A
C1069     Br1076   1.937       .  S
C1070      C1071   1.450       .  A
C1071      C1072   1.418   1_565  A
C1071     Br1078   1.912       .  S
C1072      C1073   1.395       .  A
C1072     Br1077   1.945   1_545  S
C1073      C1074   1.395       .  A
C1074     Br1075   1.942       .  S
C1079      C1080   1.463       .  A
C1079      C1084   1.426       .  A
C1079     Br1086   1.902       .  S
C1080      C1081   1.457       .  A
C1081      C1082   1.458       .  A
C1081     Br1088   1.934       .  S
C1082      C1083   1.441       .  A
C1082     Br1087   1.938       .  S
C1083      C1084   1.407       .  A
C1084     Br1085   1.948       .  S
C1089      C1090   1.400       .  A
C1089      C1094   1.422       .  A
C1089     Br1096   1.936       .  S
C1090      C1091   1.394       .  A
C1091      C1092   1.399       .  A
C1091     Br1098   1.938       .  S
C1092      C1093   1.427       .  A
C1092     Br1097   1.910       .  S
C1093      C1094   1.447       .  A
C1094     Br1095   1.929       .  S
C1099      C1100   1.468       .  A
C1099      C1104   1.482       .  A
C1099     Br1106   1.941       .  S
C1100      C1101   1.392       .  A
C1101      C1102   1.383       .  A
C1101     Br1108   1.811       .  S
C1102      C1103   1.377       .  A
C1102     Br1107   1.861       .  S
C1103      C1104   1.465       .  A
C1104     Br1105   1.937       .  S
C1109      C1110   1.479       .  A
C1109      C1114   1.499       .  A
C1109     Br1116   1.930       .  S
C1110      C1111   1.407       .  A
C1111      C1112   1.420       .  A
C1111     Br1118   1.936       .  S
C1112      C1113   1.398       .  A
C1112     Br1117   1.870       .  S
C1113      C1114   1.474       .  A
C1114     Br1115   1.915       .  S
C1119      C1120   1.392       .  A
C1119      C1124   1.415       .  A
C1119     Br1126   1.950       .  S
C1120      C1121   1.392       .  A
C1121      C1122   1.410       .  A
C1121     Br1128   1.944       .  S
C1122      C1123   1.446       .  A
C1122     Br1127   1.923       .  S
C1123      C1124   1.461       .  A
C1124     Br1125   1.943       .  S
C1129      C1130   1.453       .  A
C1129      C1134   1.452       .  A
C1129     Br1136   1.916   1_565  S
C1130      C1131   1.442       .  A
C1131      C1132   1.435       .  A
C1131     Br1138   1.930       .  S
C1132      C1133   1.435       .  A
C1132     Br1137   1.937       .  S
C1133      C1134   1.437       .  A
C1134     Br1135   1.963   1_565  S
C1139      C1140   1.456       .  A
C1139      C1144   1.423   1_565  A
C1139     Br1146   1.933       .  S
C1140      C1141   1.451       .  A
C1141      C1142   1.416       .  A
C1141     Br1148   1.925       .  S
C1142      C1143   1.395   1_565  A
C1142     Br1147   1.945       .  S
C1143      C1144   1.399       .  A
C1144     Br1145   1.944       .  S
C1149      C1150   1.432       .  A
C1149      C1154   1.439       .  A
C1149     Br1156   1.920   1_565  S
C1150      C1151   1.434       .  A
C1151      C1152   1.434       .  A
C1151     Br1158   1.941       .  S
C1152      C1153   1.450       .  A
C1152     Br1157   1.918       .  S
C1153      C1154   1.431       .  A
C1154     Br1155   1.936   1_565  S
C1159      C1160   1.464       .  A
C1159      C1164   1.490       .  A
C1159     Br1166   1.939   1_565  S
C1160      C1161   1.390       .  A
C1161      C1162   1.376       .  A
C1161     Br1168   1.869       .  S
C1162      C1163   1.379       .  A
C1162     Br1167   1.830       .  S
C1163      C1164   1.481       .  A
C1164     Br1165   1.945   1_565  S
C1169      C1170   1.452       .  A
C1169      C1174   1.417       .  A
C1169     Br1176   1.912       .  S
C1170      C1171   1.466   1_565  A
C1171      C1172   1.413       .  A
C1171     Br1178   1.945       .  S
C1172      C1173   1.388       .  A
C1172     Br1177   1.948       .  S
C1173      C1174   1.393   1_545  A
C1174     Br1175   1.946       .  S
C1179      C1180   1.450       .  A
C1179      C1184   1.446       .  A
C1179     Br1186   1.919       .  S
C1180      C1181   1.444       .  A
C1181      C1182   1.446       .  A
C1181     Br1188   1.923       .  S
C1182      C1183   1.441       .  A
C1182     Br1187   1.954       .  S
C1183      C1184   1.420       .  A
C1184     Br1185   1.944       .  S
C1189      C1190   1.398       .  A
C1189      C1194   1.431       .  A
C1189     Br1196   1.901       .  S
C1190      C1191   1.495       .  A
C1191      C1192   1.508       .  A
C1191     Br1198   1.920       .  S
C1192      C1193   1.477       .  A
C1192     Br1197   1.936       .  S
C1193      C1194   1.406       .  A
C1194     Br1195   1.933       .  S
C1199      C1200   1.428       .  A
C1199      C1204   1.393       .  A
C1199     Br1206   1.932       .  S
C1200      C1201   1.451       .  A
C1201      C1202   1.421       .  A
C1201     Br1208   1.931       .  S
C1202      C1203   1.404       .  A
C1202     Br1207   1.941       .  S
C1203      C1204   1.396       .  A
C1204     Br1205   1.931       .  S
C1209      C1210   1.437       .  A
C1209      C1214   1.409       .  A
C1209     Br1216   1.844       .  S
C1210      C1211   1.454       .  A
C1211      C1212   1.453       .  A
C1211     Br1218   1.927       .  S
C1212      C1213   1.445       .  A
C1212     Br1217   1.926       .  S
C1213      C1214   1.403       .  A
C1214     Br1215   1.924       .  S
C1219      C1220   1.450       .  A
C1219      C1224   1.465       .  A
C1219     Br1226   1.937       .  S
C1220      C1221   1.431       .  A
C1221      C1222   1.412       .  A
C1221     Br1228   1.891       .  S
C1222      C1223   1.408       .  A
C1222     Br1227   1.920       .  S
C1223      C1224   1.460       .  A
C1224     Br1225   1.930       .  S
C1229      C1230   1.435       .  A
C1229      C1234   1.446       .  A
C1229     Br1236   1.944       .  S
C1230      C1231   1.439       .  A
C1231      C1232   1.443       .  A
C1231     Br1238   1.950       .  S
C1232      C1233   1.436       .  A
C1232     Br1237   1.936       .  S
C1233      C1234   1.445       .  A
C1234     Br1235   1.933       .  S
C1239      C1240   1.392       .  A
C1239      C1244   1.396       .  A
C1239     Br1246   1.937       .  S
C1240      C1241   1.406       .  A
C1241      C1242   1.426       .  A
C1241     Br1248   1.935       .  S
C1242      C1243   1.447       .  A
C1242     Br1247   1.934       .  S
C1243      C1244   1.446       .  A
C1244     Br1245   1.942       .  S
