geometry optimzed in LAMMPS
_audit_creation_date              2020-11-30 
_audit_creation_method            'lammps2cif' 
_symmetry_space_group_name_H-M    'P1' 
_symmetry_Int_Tables_number       1 
_symmetry_cell_setting            triclinic 
loop_ 
_symmetry_equiv_pos_as_xyz 
  x,y,z 
_cell_length_a                    31.9394425 
_cell_length_b                    31.489660278577258 
_cell_length_c                    42.780681531463586 
_cell_angle_alpha                 86.48627793506024 
_cell_angle_beta                  89.68193614585246 
_cell_angle_gamma                 87.53039346622248 
loop_ 
_atom_site_label 
_atom_site_type_symbol 
_atom_site_fract_x 
_atom_site_fract_y 
_atom_site_fract_z 
_atom_site_charge 
C1          C  0.99041356  0.40747228  0.11292788     0.88000
C2          C  0.98484863  0.41355122  0.07741500    -0.52300
C3          C  0.96544194  0.38115318  0.06468386     0.10900
C4          C  0.95381039  0.34487852  0.08869581     0.21800
C5          C  0.94619842  0.40067466  0.12585165    -0.53000
C6          C  0.92649362  0.36797369  0.11291447     0.11000
C7          C  0.01403849  0.36482328  0.11858811    -0.52500
C8          C  0.99534989  0.33195564  0.10601224     0.11600
H9          H  0.99419000  0.44177402  0.06365461     0.16100
H10         H  0.93834111  0.31821955  0.07821512     0.01800
H11         H  0.93032324  0.42238589  0.14125343     0.16400
H12         H  0.04387599  0.36106663  0.13080016     0.16200
C13         C  0.61146111  0.19124153  0.36120107     0.88000
C14         C  0.58412753  0.15280726  0.36045081    -0.52300
C15         C  0.60136481  0.12072683  0.34429518     0.10900
C16         C  0.64430826  0.12942171  0.33009178     0.21800
C17         C  0.65389331  0.17288301  0.37463961    -0.53000
C18         C  0.67128710  0.13990256  0.35806606     0.11000
C19         C  0.62071276  0.20412065  0.32686344    -0.52500
C20         C  0.63799129  0.17181266  0.31082480     0.11600
H21         H  0.55363447  0.15102192  0.37179315     0.16100
H22         H  0.65705559  0.10343969  0.31598851     0.01800
H23         H  0.66826018  0.18491086  0.39502867     0.16400
H24         H  0.61397155  0.23584182  0.31612819     0.16200
O25         O  0.68600423  0.11124416  0.16241344    -0.79400
O26         O  0.73300141  0.08829830  0.01823900    -0.64100
O27         O  0.72787535  0.11117423  0.10514823    -1.10700
C28         C  0.65512988  0.23550801  0.06036153     1.07500
O29         O  0.76172843  0.15060439  0.01073439    -0.77300
O30         O  0.75785801  0.21884364  0.04804998    -0.64900
Ni31       Ni  0.70400680  0.06960652  0.13380338     1.34900
C32         C  0.76425242  0.21921871  0.07729795     0.86200
O33         O  0.76074990  0.04449671  0.07084975    -0.77900
O34         O  0.72129666  0.02109459  0.11075050    -0.88100
C35         C  0.75138323  0.11556331  0.00042878     0.85800
O36         O  0.65168012  0.07498209  0.11264047    -0.66300
O37         O  0.67475805  0.22965132  0.03483769    -0.85600
C38         C  0.64609584  0.06705155  0.08425375     0.86600
C39         C  0.74967788  0.01523026  0.09044422     1.08200
H40         H  0.67084668  0.14369758  0.04824032     0.40000
O41         O  0.69884077  0.14950845  0.05479336    -1.08300
O42         O  0.74476444  0.19624477  0.09745446    -0.64900
Ni43       Ni  0.69504900  0.16361209  0.09681784     1.26300
O44         O  0.67564193  0.06835581  0.06370494    -0.65200
O45         O  0.66157689  0.21397653  0.08622412    -0.77400
C46         C  0.68426692  0.15145442  0.16309135     0.86000
O47         O  0.69003597  0.17653194  0.13943705    -0.64600
Ni48       Ni  0.71859770  0.18986289  0.02387511     1.27400
Ni49       Ni  0.72950173  0.09702172  0.06216823     1.26100
H50         H  0.75573849  0.11685487  0.11196392     0.40500
C51         C  0.77377690  0.06829017  0.35785016     0.88000
C52         C  0.72705758  0.08055899  0.35160650    -0.52300
C53         C  0.71331170  0.11801122  0.36443220     0.10900
C54         C  0.74774129  0.13839482  0.38264442     0.21800
C55         C  0.79704593  0.10772681  0.34572027    -0.53000
C56         C  0.78293800  0.14440341  0.35838052     0.11000
C57         C  0.77794067  0.06659195  0.39350642    -0.52500
C58         C  0.76413639  0.10299698  0.40647997     0.11600
H59         H  0.70749586  0.06158426  0.33783194     0.16100
H60         H  0.73776661  0.16837029  0.39339607     0.01800
H61         H  0.82147137  0.10693226  0.32796156     0.16400
H62         H  0.78970553  0.03858578  0.40738981     0.16200
O63         O  0.83948101  0.39432962  0.25922434    -0.79400
O64         O  0.90871070  0.40871373  0.39185309    -0.64100
O65         O  0.89812145  0.38222957  0.30653847    -1.10700
C66         C  0.83249089  0.25979062  0.34226368     1.07500
O67         O  0.90136639  0.34400537  0.41506170    -0.77300
O68         O  0.93362056  0.30139113  0.36652442    -0.64900
Ni69       Ni  0.88522742  0.42511652  0.27442425     1.34900
C70         C  0.93975199  0.29236001  0.33830805     0.86200
O71         O  0.94342349  0.43834388  0.33810284    -0.77900
O72         O  0.93239915  0.45625882  0.28668614    -0.88100
C73         C  0.90983380  0.38275876  0.41579608     0.85800
O74         O  0.84688194  0.46087962  0.29704167    -0.66300
O75         O  0.85999559  0.26131652  0.36323032    -0.85600
C76         C  0.83936200  0.46375888  0.32604915     0.86600
C77         C  0.95308843  0.45760759  0.31204880     1.08200
H78         H  0.83602547  0.36378195  0.36261481     0.40000
O79         O  0.86309241  0.35192646  0.35658444    -1.08300
O80         O  0.91151639  0.29809539  0.31703952    -0.64900
Ni81       Ni  0.86144297  0.33667068  0.31367225     1.26300
O82         O  0.85751649  0.43973908  0.34735279    -0.65200
O83         O  0.82465655  0.29050073  0.32221515    -0.77400
C84         C  0.84570381  0.35673125  0.25032531     0.86000
O85         O  0.85914626  0.32689915  0.26965191    -0.64600
Ni86       Ni  0.88045183  0.30641068  0.38624025     1.27400
Ni87       Ni  0.90270664  0.39650070  0.34864235     1.26100
H88         H  0.92526498  0.37047989  0.30069124     0.40500
C89         C  0.81015748  0.40013525  0.10833612     0.88000
C90         C  0.85692383  0.40191601  0.10140296    -0.52300
C91         C  0.88008000  0.36728169  0.11321967     0.10900
C92         C  0.85358692  0.33302804  0.13051502     0.21800
C93         C  0.79658975  0.35877414  0.09525487    -0.53000
C94         C  0.81911250  0.32335891  0.10671999     0.11000
C95         C  0.80717857  0.39277632  0.14404491    -0.52500
C96         C  0.82992340  0.35780181  0.15584783     0.11600
H97         H  0.87097645  0.42927128  0.08943611     0.16100
H98         H  0.87225583  0.30463060  0.14004571     0.01800
H99         H  0.77099342  0.35749262  0.07875467     0.16400
H100        H  0.78994020  0.41435876  0.15882866     0.16200
C101        C  0.49856206  0.37482347  0.07993318     0.88000
C102        C  0.49500065  0.37933304  0.11538123    -0.52300
C103        C  0.46810961  0.41182339  0.12314034     0.10900
C104        C  0.44760497  0.43682951  0.09486355     0.21800
C105        C  0.45414906  0.36970299  0.06888153    -0.53800
C106        C  0.42668366  0.40143263  0.07723241     0.11000
C107        C  0.51116735  0.41791804  0.06611651    -0.52500
C108        C  0.48568238  0.45100243  0.07444051     0.11600
H109        H  0.51136217  0.35815273  0.13271443     0.16100
H110        H  0.42560636  0.46323786  0.10120119     0.01800
H111        H  0.44433883  0.34129326  0.05822280     0.16400
H112        H  0.54088347  0.42237124  0.05403623     0.16200
C113        C  0.10849494  0.08080304  0.32961110     0.88000
C114        C  0.08365297  0.12258821  0.32218729    -0.52300
C115        C  0.09926233  0.15640765  0.33560799     0.10900
C116        C  0.13896249  0.14541401  0.35528482     0.21800
C117        C  0.15373454  0.08932577  0.31918626    -0.53000
C118        C  0.17045210  0.12330174  0.33297540     0.11000
C119        C  0.11040566  0.07551981  0.36536988    -0.52500
C120        C  0.12655041  0.10920537  0.37872343     0.11600
H121        H  0.05494633  0.12492979  0.30851284     0.16100
H122        H  0.15020152  0.17309574  0.36700685     0.01800
H123        H  0.17066283  0.06942335  0.30319370     0.16400
H124        H  0.10079950  0.04720641  0.37888875     0.16200
O125        O  0.19731862  0.15791568  0.02734892    -0.79400
O126        O  0.23880883  0.16659514  0.17355634    -0.64100
O127        O  0.23213693  0.14542904  0.08641375    -1.10700
C128        C  0.14053602  0.04057547  0.12884875     1.07500
O129        O  0.25732301  0.09848177  0.18264089    -0.77300
O130        O  0.25031774  0.03755523  0.13991700    -0.64900
Ni131      Ni  0.21842236  0.19330638  0.05779018     1.34900
C132        C  0.25112573  0.03395373  0.11050278     0.86200
O133        O  0.27441539  0.20328494  0.12212966    -0.77900
O134        O  0.23943051  0.23659292  0.08271816    -0.88100
C135        C  0.25203385  0.13589537  0.19212777     0.85800
O136        O  0.16501840  0.19851241  0.07694478    -0.66300
O137        O  0.16549905  0.03701814  0.15219761    -0.85600
C138        C  0.15823731  0.20483338  0.10560868     0.86600
C139        C  0.26725151  0.23580837  0.10369374     1.08200
H140        H  0.17136162  0.12666661  0.14445887     0.40000
O141        O  0.19737460  0.11454992  0.13654057    -1.08300
O142        O  0.22879616  0.05755291  0.09137882    -0.64900
Ni143      Ni  0.18836079  0.10470915  0.09413901     1.26300
O144        O  0.18637484  0.19844594  0.12697059    -0.65200
O145        O  0.14513740  0.06592322  0.10473282    -0.77400
C146        C  0.18167580  0.12171195  0.02692206     0.86000
O147        O  0.17733982  0.09684192  0.05103344    -0.64600
Ni148      Ni  0.21195087  0.06850505  0.16576702     1.27400
Ni149      Ni  0.23559421  0.15860286  0.12960786     1.26100
H150        H  0.25800164  0.13135737  0.08003224     0.40500
C151        C  0.27798918  0.17585312  0.33660544     0.88000
C152        C  0.23152890  0.16905679  0.34350190    -0.52300
C153        C  0.21528947  0.13559301  0.32902337     0.10900
C154        C  0.24834683  0.11203851  0.30887514     0.21800
C155        C  0.30044148  0.13276455  0.34582850    -0.53000
C156        C  0.28503149  0.09926848  0.33126659     0.11000
C157        C  0.28090708  0.18046050  0.30068734    -0.52500
C158        C  0.26537531  0.14710025  0.28621410     0.11600
H159        H  0.21375186  0.18959888  0.35853525     0.16100
H160        H  0.23686099  0.08478283  0.29669575     0.01800
H161        H  0.32649495  0.12916326  0.36212764     0.16400
H162        H  0.29372624  0.20782105  0.28787040     0.16200
O163        O  0.41582194  0.35751767  0.28009426    -0.79400
O164        O  0.36327078  0.35520356  0.42593798    -0.64100
O165        O  0.37026557  0.36851037  0.33581304    -1.10700
C166        C  0.46006031  0.47839288  0.36135259     1.07500
O167        O  0.34922251  0.42465642  0.42589981    -0.77300
O168        O  0.36280433  0.48745237  0.38103760    -0.64900
Ni169      Ni  0.39248587  0.32169696  0.31340728     1.34900
C170        C  0.34866244  0.48629401  0.35349976     0.86200
O171        O  0.33050021  0.31166777  0.37753817    -0.77900
O172        O  0.36980041  0.27912450  0.34216579    -0.88100
C173        C  0.35210192  0.38830445  0.44042167     0.85800
O174        O  0.44399704  0.31961679  0.33592684    -0.66300
O175        O  0.44659567  0.47495179  0.38949084    -0.85600
C176        C  0.44752224  0.31198874  0.36532695     0.86600
C177        C  0.33836676  0.28032978  0.36040005     1.08200
H178        H  0.43318063  0.39209408  0.38565243     0.40000
O179        O  0.40559564  0.40393950  0.38022317    -1.08300
O180        O  0.35881820  0.45666975  0.33548959    -0.64900
Ni181      Ni  0.40628918  0.41579207  0.33643134     1.26300
O182        O  0.41716180  0.31881291  0.38438950    -0.65200
O183        O  0.44440007  0.46060428  0.33847941    -0.77400
C184        C  0.41592947  0.39725190  0.27289188     0.86000
O185        O  0.40727992  0.42522748  0.29217290    -0.64600
Ni186      Ni  0.39768653  0.44926437  0.40702443     1.27400
Ni187      Ni  0.36777004  0.35841676  0.38053576     1.26100
H188        H  0.34287897  0.37765599  0.32774752     0.40500
C189        C  0.32089517  0.34880510  0.08627306     0.88000
C190        C  0.36695421  0.35645125  0.09298103    -0.52300
C191        C  0.38132266  0.39300697  0.07823061     0.10900
C192        C  0.34792727  0.41844684  0.05815917     0.21800
C193        C  0.29686281  0.38928734  0.09564184    -0.53000
C194        C  0.31110511  0.42592523  0.08122349     0.11000
C195        C  0.31813065  0.34979818  0.05053907    -0.52500
C196        C  0.33257915  0.38563589  0.03561702     0.11600
H197        H  0.38703248  0.33398048  0.10691424     0.16100
H198        H  0.35963784  0.44788643  0.04611089     0.01800
H199        H  0.27156290  0.38909673  0.11272527     0.16400
H200        H  0.30760575  0.32324206  0.03797766     0.16200
C201        C  0.34382568  0.38614924  0.47379628    -0.11800
C202        C  0.33834116  0.38782334  0.00181344    -0.13400
C203        C  0.29494643  0.21266715  0.35194847    -0.11800
C204        C  0.31190702  0.24404144  0.36013003    -0.13400
C205        C  0.30301640  0.05603532  0.33612220    -0.11800
C206        C  0.32142868  0.02198683  0.34228300    -0.13400
C207        C  0.26370107  0.14556890  0.25246704    -0.11800
C208        C  0.26004293  0.14273501  0.22454222    -0.13400
C209        C  0.29021788  0.27408262  0.10588051    -0.11800
C210        C  0.30557574  0.30837205  0.10063270    -0.13400
C211        C  0.27675149  0.99959811  0.09827965    -0.11800
C212        C  0.29414304  0.46755264  0.08919145    -0.13400
C213        C  0.13478933  0.10858651  0.41176993    -0.17000
C214        C  0.14359442  0.10682651  0.43915526     0.07000
C215        C  0.15577447  0.10609999  0.47080193     0.08900
C216        C  0.16738758  0.10959928  0.99721159    -0.17900
C217        C  0.42693252  0.41049420  0.24136168    -0.17000
C218        C  0.43663323  0.41740918  0.21433398     0.07000
C219        C  0.44801392  0.42053269  0.18240451     0.08900
C220        C  0.45741924  0.41892527  0.15518656    -0.17900
C221        C  0.08775400  0.04524299  0.31654973    -0.17000
C222        C  0.06076241  0.02109728  0.31119978     0.07000
C223        C  0.02368530  0.99842083  0.30980898     0.08900
C224        C  0.99087931  0.48077000  0.31072963    -0.17900
C225        C  0.07589009  0.19677098  0.33406581    -0.17000
C226        C  0.04929563  0.22523824  0.33188922     0.07000
C227        C  0.01303176  0.25276573  0.33007021     0.08900
C228        C  0.97981018  0.27248239  0.33121602    -0.17900
C229        C  0.83486673  0.34943267  0.18947821    -0.11800
C230        C  0.83900264  0.34921827  0.21768416    -0.13400
C231        C  0.79063300  0.02849903  0.34445301    -0.11800
C232        C  0.81035965  0.49757633  0.33546767    -0.13400
C233        C  0.79745444  0.18583554  0.34805312    -0.11800
C234        C  0.81097470  0.22066027  0.34205533    -0.13400
C235        C  0.50482478  0.49199442  0.07419985    -0.17000
C236        C  0.53222074  0.51756457  0.07364664     0.07000
C237        C  0.57047466  0.03926574  0.07376437     0.08900
C238        C  0.60494089  0.05356839  0.07615141    -0.17900
C239        C  0.62215533  0.26706377  0.05984207    -0.17000
C240        C  0.59187043  0.29044064  0.06148067     0.07000
C241        C  0.55631739  0.31658300  0.06605446     0.08900
C242        C  0.52805122  0.34098510  0.07180322    -0.17900
C243        C  0.75832987  0.10859706  0.46790158    -0.11800
C244        C  0.76193994  0.10610683  0.43997004    -0.13400
C245        C  0.78685614  0.43902676  0.09642399    -0.11800
C246        C  0.76980823  0.47355701  0.09066640    -0.13400
C247        C  0.79215473  0.25011397  0.08853204    -0.11800
C248        C  0.80839949  0.28122654  0.09778308    -0.13400
C249        C  0.58015474  0.08215213  0.34184178    -0.17000
C250        C  0.55671062  0.05347904  0.34351943     0.07000
C251        C  0.52464850  0.02508019  0.34890637     0.08900
C252        C  0.49529894  0.00354722  0.35479302    -0.17900
C253        C  0.58849764  0.22587815  0.37673778    -0.17000
C254        C  0.55965646  0.25072907  0.38215190     0.07000
C255        C  0.52103434  0.27514202  0.38175309     0.08900
C256        C  0.48712642  0.29313969  0.37680224    -0.17900
C257        C  0.64894309  0.17694196  0.27833712    -0.17000
C258        C  0.65781224  0.17892953  0.25100685     0.07000
C259        C  0.66751268  0.17657114  0.21912018     0.08900
C260        C  0.67530842  0.16865011  0.19257556    -0.17900
C261        C  0.11711902  0.22171063  0.11315720    -0.17000
C262        C  0.08237197  0.23840090  0.11374341     0.07000
C263        C  0.04434461  0.26308342  0.11058496     0.08900
C264        C  0.01698061  0.29068701  0.10742248    -0.17900
C265        C  0.10447416  0.01489317  0.13021321    -0.17000
C266        C  0.07382640  0.49381694  0.13119976     0.07000
C267        C  0.03919636  0.46763569  0.13005672     0.08900
C268        C  0.01323203  0.44223291  0.12515972    -0.17900
C269        C  0.95341124  0.38422487  0.03209120    -0.17000
C270        C  0.94352861  0.39033919  0.50491843     0.07000
C271        C  0.93197231  0.39657512  0.47300737     0.08900
C272        C  0.92187336  0.39600427  0.44587795    -0.17900
C273        C  0.99041349  0.40747228  0.61292788     0.88000
C274        C  0.98484852  0.41355126  0.57741500    -0.52300
C275        C  0.96544187  0.38115320  0.56468385     0.10900
C276        C  0.95381034  0.34487852  0.58869579     0.21800
C277        C  0.94619838  0.40067459  0.62585166    -0.53000
C278        C  0.92649358  0.36797364  0.61291446     0.11000
C279        C  0.01403846  0.36482329  0.61858809    -0.52500
C280        C  0.99534986  0.33195565  0.60601221     0.11600
H281        H  0.99418986  0.44177407  0.56365461     0.16100
H282        H  0.93834106  0.31821956  0.57821510     0.01800
H283        H  0.93032320  0.42238577  0.64125347     0.16400
H284        H  0.04387596  0.36106665  0.63080015     0.16200
C285        C  0.61146118  0.19124155  0.86120105     0.88000
C286        C  0.58412758  0.15280729  0.86045080    -0.52300
C287        C  0.60136486  0.12072685  0.84429517     0.10900
C288        C  0.64430832  0.12942171  0.83009179     0.21800
C289        C  0.65389336  0.17288301  0.87463960    -0.53000
C290        C  0.67128714  0.13990255  0.85806606     0.11000
C291        C  0.62071286  0.20412067  0.82686343    -0.52500
C292        C  0.63799137  0.17181267  0.81082480     0.11600
H293        H  0.55363450  0.15102198  0.87179312     0.16100
H294        H  0.65705566  0.10343968  0.81598852     0.01800
H295        H  0.66826022  0.18491087  0.89502864     0.16400
H296        H  0.61397161  0.23584184  0.81612818     0.16200
O297        O  0.68600414  0.11124418  0.66241343    -0.79400
O298        O  0.73300149  0.08829832  0.51823902    -0.64100
O299        O  0.72787541  0.11117423  0.60514826    -1.10700
C300        C  0.65512992  0.23550796  0.56036153     1.07500
O301        O  0.76172852  0.15060439  0.51073441    -0.77300
O302        O  0.75785806  0.21884366  0.54804998    -0.64900
Ni303      Ni  0.70400682  0.06960653  0.63380341     1.34900
C304        C  0.76425252  0.21921869  0.57729795     0.86200
O305        O  0.76074995  0.04449670  0.57084977    -0.77900
O306        O  0.72129677  0.02109460  0.61075056    -0.88100
C307        C  0.75138331  0.11556332  0.50042880     0.85800
O308        O  0.65168017  0.07498208  0.61264047    -0.66300
O309        O  0.67475809  0.22965127  0.53483768    -0.85600
C310        C  0.64609591  0.06705154  0.58425374     0.86600
C311        C  0.74967793  0.01523026  0.59044423     1.08200
H312        H  0.67084666  0.14369755  0.54824032     0.40000
O313        O  0.69884091  0.14950846  0.55479339    -1.08300
O314        O  0.74476456  0.19624474  0.59745447    -0.64900
Ni315      Ni  0.69504909  0.16361208  0.59681785     1.26300
O316        O  0.67564201  0.06835582  0.56370495    -0.65200
O317        O  0.66157697  0.21397651  0.58622413    -0.77400
C318        C  0.68426686  0.15145443  0.66309133     0.86000
O319        O  0.69003601  0.17653195  0.63943705    -0.64600
Ni320      Ni  0.71859777  0.18986288  0.52387512     1.27400
Ni321      Ni  0.72950181  0.09702172  0.56216825     1.26100
H322        H  0.75573856  0.11685486  0.61196396     0.40500
C323        C  0.77377694  0.06829018  0.85785017     0.88000
C324        C  0.72705760  0.08055899  0.85160651    -0.52300
C325        C  0.71331173  0.11801122  0.86443221     0.10900
C326        C  0.74774131  0.13839483  0.88264443     0.21800
C327        C  0.79704596  0.10772682  0.84572026    -0.53000
C328        C  0.78293802  0.14440342  0.85838052     0.11000
C329        C  0.77794070  0.06659196  0.89350643    -0.52500
C330        C  0.76413639  0.10299698  0.90647997     0.11600
H331        H  0.70749587  0.06158424  0.83783196     0.16100
H332        H  0.73776663  0.16837031  0.89339608     0.01800
H333        H  0.82147143  0.10693227  0.82796157     0.16400
H334        H  0.78970557  0.03858581  0.90738983     0.16200
O335        O  0.83948102  0.39432961  0.75922434    -0.79400
O336        O  0.90871075  0.40871371  0.89185309    -0.64100
O337        O  0.89812138  0.38222958  0.80653849    -1.10700
C338        C  0.83249091  0.25979060  0.84226369     1.07500
O339        O  0.90136639  0.34400536  0.91506172    -0.77300
O340        O  0.93362056  0.30139116  0.86652441    -0.64900
Ni341      Ni  0.88522741  0.42511651  0.77442426     1.34900
C342        C  0.93975198  0.29236001  0.83830804     0.86200
O343        O  0.94342352  0.43834384  0.83810282    -0.77900
O344        O  0.93239910  0.45625886  0.78668614    -0.88100
C345        C  0.90983383  0.38275875  0.91579609     0.85800
O346        O  0.84688192  0.46087958  0.79704168    -0.66300
O347        O  0.85999561  0.26131651  0.86323033    -0.85600
C348        C  0.83936199  0.46375887  0.82604915     0.86600
C349        C  0.95308841  0.45760760  0.81204879     1.08200
H350        H  0.83602548  0.36378194  0.86261483     0.40000
O351        O  0.86309241  0.35192646  0.85658445    -1.08300
O352        O  0.91151636  0.29809537  0.81703952    -0.64900
Ni353      Ni  0.86144295  0.33667067  0.81367227     1.26300
O354        O  0.85751651  0.43973908  0.84735281    -0.65200
O355        O  0.82465654  0.29050072  0.82221518    -0.77400
C356        C  0.84570383  0.35673123  0.75032532     0.86000
O357        O  0.85914623  0.32689913  0.76965193    -0.64600
Ni358      Ni  0.88045184  0.30641068  0.88624027     1.27400
Ni359      Ni  0.90270665  0.39650068  0.84864235     1.26100
H360        H  0.92526513  0.37047979  0.80069121     0.40500
C361        C  0.81015748  0.40013521  0.60833615     0.88000
C362        C  0.85692381  0.40191598  0.60140297    -0.52300
C363        C  0.88007998  0.36728165  0.61321968     0.10900
C364        C  0.85358693  0.33302801  0.63051505     0.21800
C365        C  0.79658973  0.35877410  0.59525492    -0.53000
C366        C  0.81911251  0.32335888  0.60672002     0.11000
C367        C  0.80717861  0.39277629  0.64404494    -0.52500
C368        C  0.82992344  0.35780178  0.65584786     0.11600
H369        H  0.87097644  0.42927123  0.58943609     0.16100
H370        H  0.87225584  0.30463058  0.64004573     0.01800
H371        H  0.77099342  0.35749258  0.57875471     0.16400
H372        H  0.78994028  0.41435873  0.65882870     0.16200
C373        C  0.49856212  0.37482348  0.57993316     0.88000
C374        C  0.49500073  0.37933308  0.61538120    -0.52300
C375        C  0.46810966  0.41182340  0.62314032     0.10900
C376        C  0.44760499  0.43682949  0.59486354     0.21800
C377        C  0.45414913  0.36970295  0.56888154    -0.53800
C378        C  0.42668371  0.40143258  0.57723242     0.11000
C379        C  0.51116737  0.41791805  0.56611649    -0.52500
C380        C  0.48568238  0.45100243  0.57444049     0.11600
H381        H  0.51136227  0.35815278  0.63271439     0.16100
H382        H  0.42560637  0.46323781  0.60120119     0.01800
H383        H  0.44433893  0.34129320  0.55822282     0.16400
H384        H  0.54088348  0.42237125  0.55403620     0.16200
C385        C  0.10849494  0.08080303  0.82961111     0.88000
C386        C  0.08365297  0.12258820  0.82218729    -0.52300
C387        C  0.09926234  0.15640764  0.83560799     0.10900
C388        C  0.13896250  0.14541401  0.85528483     0.21800
C389        C  0.15373455  0.08932575  0.81918628    -0.53000
C390        C  0.17045210  0.12330173  0.83297542     0.11000
C391        C  0.11040567  0.07551981  0.86536988    -0.52500
C392        C  0.12655041  0.10920537  0.87872344     0.11600
H393        H  0.05494631  0.12492978  0.80851284     0.16100
H394        H  0.15020154  0.17309574  0.86700686     0.01800
H395        H  0.17066283  0.06942333  0.80319371     0.16400
H396        H  0.10079952  0.04720641  0.87888876     0.16200
O397        O  0.19731873  0.15791567  0.52734891    -0.79400
O398        O  0.23880885  0.16659514  0.67355635    -0.64100
O399        O  0.23213699  0.14542904  0.58641375    -1.10700
C400        C  0.14053611  0.04057546  0.62884874     1.07500
O401        O  0.25732314  0.09848179  0.68264085    -0.77300
O402        O  0.25031778  0.03755522  0.63991697    -0.64900
Ni403      Ni  0.21842238  0.19330639  0.55779019     1.34900
C404        C  0.25112578  0.03395374  0.61050275     0.86200
O405        O  0.27441536  0.20328499  0.62212968    -0.77900
O406        O  0.23943043  0.23659295  0.58271820    -0.88100
C407        C  0.25203392  0.13589538  0.69212777     0.85800
O408        O  0.16501839  0.19851235  0.57694477    -0.66300
O409        O  0.16549909  0.03701818  0.65219764    -0.85600
C410        C  0.15823728  0.20483335  0.60560866     0.86600
C411        C  0.26725145  0.23580842  0.60369376     1.08200
H412        H  0.17136170  0.12666657  0.64445888     0.40000
O413        O  0.19737468  0.11454991  0.63654057    -1.08300
O414        O  0.22879623  0.05755294  0.59137879    -0.64900
Ni415      Ni  0.18836086  0.10470915  0.59413901     1.26300
O416        O  0.18637480  0.19844591  0.62697059    -0.65200
O417        O  0.14513752  0.06592318  0.60473280    -0.77400
C418        C  0.18167586  0.12171196  0.52692206     0.86000
O419        O  0.17733984  0.09684195  0.55103344    -0.64600
Ni420      Ni  0.21195096  0.06850505  0.66576702     1.27400
Ni421      Ni  0.23559423  0.15860288  0.62960787     1.26100
H422        H  0.25800161  0.13135745  0.58003227     0.40500
C423        C  0.27798917  0.17585312  0.83660545     0.88000
C424        C  0.23152889  0.16905681  0.84350191    -0.52300
C425        C  0.21528946  0.13559303  0.82902338     0.10900
C426        C  0.24834680  0.11203852  0.80887515     0.21800
C427        C  0.30044146  0.13276455  0.84582852    -0.53000
C428        C  0.28503145  0.09926849  0.83126660     0.11000
C429        C  0.28090706  0.18046050  0.80068736    -0.52500
C430        C  0.26537526  0.14710026  0.78621411     0.11600
H431        H  0.21375186  0.18959891  0.85853526     0.16100
H432        H  0.23686096  0.08478284  0.79669576     0.01800
H433        H  0.32649492  0.12916325  0.86212766     0.16400
H434        H  0.29372623  0.20782104  0.78787042     0.16200
O435        O  0.41582198  0.35751769  0.78009424    -0.79400
O436        O  0.36327075  0.35520355  0.92593796    -0.64100
O437        O  0.37026557  0.36851038  0.83581301    -1.10700
C438        C  0.46006029  0.47839289  0.86135261     1.07500
O439        O  0.34922248  0.42465641  0.92589981    -0.77300
O440        O  0.36280433  0.48745237  0.88103758    -0.64900
Ni441      Ni  0.39248592  0.32169697  0.81340726     1.34900
C442        C  0.34866248  0.48629404  0.85349973     0.86200
O443        O  0.33050023  0.31166776  0.87753812    -0.77900
O444        O  0.36980050  0.27912450  0.84216577    -0.88100
C445        C  0.35210190  0.38830444  0.94042166     0.85800
O446        O  0.44399708  0.31961684  0.83592682    -0.66300
O447        O  0.44659564  0.47495180  0.88949085    -0.85600
C448        C  0.44752226  0.31198875  0.86532692     0.86600
C449        C  0.33836683  0.28032976  0.86040002     1.08200
H450        H  0.43318049  0.39209414  0.88565242     0.40000
O451        O  0.40559567  0.40393949  0.88022318    -1.08300
O452        O  0.35881822  0.45666976  0.83548957    -0.64900
Ni453      Ni  0.40628919  0.41579208  0.83643134     1.26300
O454        O  0.41716182  0.31881291  0.88438948    -0.65200
O455        O  0.44440006  0.46060428  0.83847943    -0.77400
C456        C  0.41592948  0.39725192  0.77289187     0.86000
O457        O  0.40727995  0.42522748  0.79217289    -0.64600
Ni458      Ni  0.39768650  0.44926438  0.90702443     1.27400
Ni459      Ni  0.36777003  0.35841676  0.88053573     1.26100
H460        H  0.34287908  0.37765597  0.82774749     0.40500
C461        C  0.32089517  0.34880512  0.58627307     0.88000
C462        C  0.36695423  0.35645121  0.59298102    -0.52300
C463        C  0.38132270  0.39300692  0.57823059     0.10900
C464        C  0.34792731  0.41844683  0.55815916     0.21800
C465        C  0.29686287  0.38928738  0.59564184    -0.53000
C466        C  0.31110519  0.42592525  0.58122350     0.11000
C467        C  0.31813061  0.34979821  0.55053908    -0.52500
C468        C  0.33257914  0.38563590  0.53561702     0.11600
H469        H  0.38703248  0.33398043  0.60691423     0.16100
H470        H  0.35963790  0.44788641  0.54611088     0.01800
H471        H  0.27156299  0.38909679  0.61272530     0.16400
H472        H  0.30760568  0.32324210  0.53797767     0.16200
C473        C  0.34382570  0.38614922  0.97379628    -0.11800
C474        C  0.33834115  0.38782333  0.50181344    -0.13400
C475        C  0.29494650  0.21266712  0.85194847    -0.11800
C476        C  0.31190714  0.24404139  0.86013002    -0.13400
C477        C  0.30301638  0.05603535  0.83612221    -0.11800
C478        C  0.32142869  0.02198687  0.84228301    -0.13400
C479        C  0.26370102  0.14556891  0.75246706    -0.11800
C480        C  0.26004293  0.14273499  0.72454224    -0.13400
C481        C  0.29021782  0.27408267  0.60588052    -0.11800
C482        C  0.30557570  0.30837209  0.60063271    -0.13400
C483        C  0.27675154  0.99959812  0.59827962    -0.11800
C484        C  0.29414316  0.46755267  0.58919149    -0.13400
C485        C  0.13478927  0.10858654  0.91176994    -0.17000
C486        C  0.14359433  0.10682653  0.93915527     0.07000
C487        C  0.15577439  0.10609999  0.97080194     0.08900
C488        C  0.16738764  0.10959929  0.49721158    -0.17900
C489        C  0.42693248  0.41049422  0.74136166    -0.17000
C490        C  0.43663315  0.41740919  0.71433394     0.07000
C491        C  0.44801387  0.42053268  0.68240448     0.08900
C492        C  0.45741925  0.41892523  0.65518654    -0.17900
C493        C  0.08775396  0.04524298  0.81654975    -0.17000
C494        C  0.06076236  0.02109729  0.81119979     0.07000
C495        C  0.02368528  0.99842081  0.80980896     0.08900
C496        C  0.99087927  0.48077003  0.81072962    -0.17900
C497        C  0.07589010  0.19677098  0.83406582    -0.17000
C498        C  0.04929563  0.22523824  0.83188924     0.07000
C499        C  0.01303176  0.25276574  0.83007021     0.08900
C500        C  0.97981018  0.27248241  0.83121601    -0.17900
C501        C  0.83486680  0.34943266  0.68947822    -0.11800
C502        C  0.83900272  0.34921825  0.71768417    -0.13400
C503        C  0.79063306  0.02849904  0.84445303    -0.11800
C504        C  0.81035964  0.49757634  0.83546765    -0.13400
C505        C  0.79745448  0.18583553  0.84805314    -0.11800
C506        C  0.81097475  0.22066025  0.84205534    -0.13400
C507        C  0.50482478  0.49199443  0.57419985    -0.17000
C508        C  0.53222073  0.51756457  0.57364666     0.07000
C509        C  0.57047474  0.03926571  0.57376437     0.08900
C510        C  0.60494097  0.05356837  0.57615139    -0.17900
C511        C  0.62215532  0.26706368  0.55984207    -0.17000
C512        C  0.59187044  0.29044055  0.56148069     0.07000
C513        C  0.55631743  0.31658296  0.56605446     0.08900
C514        C  0.52805129  0.34098511  0.57180321    -0.17900
C515        C  0.75832981  0.10859705  0.96790157    -0.11800
C516        C  0.76193991  0.10610683  0.93997003    -0.13400
C517        C  0.78685612  0.43902672  0.59642404    -0.11800
C518        C  0.76980824  0.47355698  0.59066643    -0.13400
C519        C  0.79215487  0.25011393  0.58853202    -0.11800
C520        C  0.80839960  0.28122652  0.59778306    -0.13400
C521        C  0.58015474  0.08215218  0.84184176    -0.17000
C522        C  0.55671058  0.05347910  0.84351943     0.07000
C523        C  0.52464846  0.02508024  0.84890639     0.08900
C524        C  0.49529892  0.00354723  0.85479303    -0.17900
C525        C  0.58849771  0.22587818  0.87673777    -0.17000
C526        C  0.55965651  0.25072909  0.88215185     0.07000
C527        C  0.52103438  0.27514204  0.88175302     0.08900
C528        C  0.48712645  0.29313970  0.87680220    -0.17900
C529        C  0.64894308  0.17694190  0.77833711    -0.17000
C530        C  0.65781216  0.17892944  0.75100683     0.07000
C531        C  0.66751256  0.17657109  0.71912015     0.08900
C532        C  0.67530830  0.16865012  0.69257553    -0.17900
C533        C  0.11711898  0.22171062  0.61315716    -0.17000
C534        C  0.08237192  0.23840089  0.61374339     0.07000
C535        C  0.04434455  0.26308341  0.61058497     0.08900
C536        C  0.01698055  0.29068700  0.60742248    -0.17900
C537        C  0.10447425  0.01489317  0.63021316    -0.17000
C538        C  0.07382633  0.49381697  0.63119971     0.07000
C539        C  0.03919628  0.46763571  0.63005667     0.08900
C540        C  0.01323194  0.44223293  0.62515971    -0.17900
C541        C  0.95341116  0.38422491  0.53209120    -0.17000
C542        C  0.94352872  0.39033917  0.00491843     0.07000
C543        C  0.93197241  0.39657512  0.97300737     0.08900
C544        C  0.92187342  0.39600426  0.94587795    -0.17900
C545        C  0.99041258  0.90747208  0.11292742     0.88000
C546        C  0.98484808  0.91355082  0.07741452    -0.52300
C547        C  0.96544174  0.88115260  0.06468337     0.10900
C548        C  0.95380990  0.84487806  0.08869535     0.21800
C549        C  0.94619741  0.90067447  0.12585097    -0.53000
C550        C  0.92649284  0.86797339  0.11291378     0.11000
C551        C  0.01403759  0.86482322  0.11858795    -0.52500
C552        C  0.99534922  0.83195541  0.10601215     0.11600
H553        H  0.99418952  0.94177358  0.06365411     0.16100
H554        H  0.93834081  0.81821898  0.07821466     0.01800
H555        H  0.93032207  0.92238571  0.14125267     0.16400
H556        H  0.04387490  0.86106675  0.13080029     0.16200
C557        C  0.61146047  0.69124197  0.36120104     0.88000
C558        C  0.58412727  0.65280726  0.36045184    -0.52300
C559        C  0.60136439  0.62072677  0.34429616     0.10900
C560        C  0.64430722  0.62942187  0.33009184     0.21800
C561        C  0.65389335  0.67288423  0.37463890    -0.53000
C562        C  0.67128684  0.63990344  0.35806548     0.11000
C563        C  0.62071069  0.70412048  0.32686313    -0.52500
C564        C  0.63798902  0.67181240  0.31082456     0.11600
H565        H  0.55363452  0.65102182  0.37179466     0.16100
H566        H  0.65705429  0.60343973  0.31598856     0.01800
H567        H  0.66826060  0.68491259  0.39502760     0.16400
H568        H  0.61396863  0.73584136  0.31612763     0.16200
O569        O  0.68600433  0.61124312  0.16241385    -0.79400
O570        O  0.73300097  0.58829753  0.01823953    -0.64100
O571        O  0.72787561  0.61117361  0.10514865    -1.10700
C572        C  0.65512957  0.73550715  0.06036261     1.07500
O573        O  0.76172733  0.65060387  0.01073424    -0.77300
O574        O  0.75785747  0.71884289  0.04805016    -0.64900
Ni575      Ni  0.70400718  0.56960569  0.13380370     1.34900
C576        C  0.76425180  0.71921834  0.07729814     0.86200
O577        O  0.76075036  0.54449647  0.07084998    -0.77900
O578        O  0.72129710  0.52109391  0.11075055    -0.88100
C579        C  0.75138220  0.61556255  0.00042901     0.85800
O580        O  0.65168045  0.57498145  0.11264092    -0.66300
O581        O  0.67475745  0.72965067  0.03483862    -0.85600
C582        C  0.64609612  0.56705067  0.08425428     0.86600
C583        C  0.74967825  0.51522978  0.09044417     1.08200
H584        H  0.67084627  0.64369657  0.04824094     0.40000
O585        O  0.69884048  0.64950766  0.05479388    -1.08300
O586        O  0.74476395  0.69624445  0.09745478    -0.64900
Ni587      Ni  0.69504885  0.66361117  0.09681837     1.26300
O588        O  0.67564219  0.56835487  0.06370547    -0.65200
O589        O  0.66157646  0.71397525  0.08622497    -0.77400
C590        C  0.68426637  0.65145339  0.16309169     0.86000
O591        O  0.69003568  0.67653094  0.13943749    -0.64600
Ni592      Ni  0.71859682  0.68986226  0.02387552     1.27400
Ni593      Ni  0.72950177  0.59702116  0.06216864     1.26100
H594        H  0.75573867  0.61685441  0.11196428     0.40500
C595        C  0.77377612  0.56828974  0.35785045     0.88000
C596        C  0.72705710  0.58055937  0.35160598    -0.52300
C597        C  0.71331127  0.61801161  0.36443176     0.10900
C598        C  0.74774058  0.63839431  0.38264483     0.21800
C599        C  0.79704605  0.60772617  0.34572133    -0.53000
C600        C  0.78293811  0.64440277  0.35838160     0.11000
C601        C  0.77793868  0.56659090  0.39350676    -0.52500
C602        C  0.76413449  0.60299587  0.40648034     0.11600
H603        H  0.70749561  0.56158508  0.33783092     0.16100
H604        H  0.73776604  0.66836969  0.39339663     0.01800
H605        H  0.82147200  0.60693154  0.32796302     0.16400
H606        H  0.78970295  0.53858448  0.40739013     0.16200
O607        O  0.83948064  0.89432857  0.25922508    -0.79400
O608        O  0.90870996  0.90871495  0.39185284    -0.64100
O609        O  0.89812138  0.88222917  0.30653866    -1.10700
C610        C  0.83249121  0.75979013  0.34226477     1.07500
O611        O  0.90136769  0.84400636  0.41506161    -0.77300
O612        O  0.93362090  0.80139067  0.36652491    -0.64900
Ni613      Ni  0.88522753  0.92511547  0.27442403     1.34900
C614        C  0.93975238  0.79235962  0.33830853     0.86200
O615        O  0.94342268  0.93834473  0.33810241    -0.77900
O616        O  0.93239986  0.95625726  0.28668517    -0.88100
C617        C  0.90983417  0.88276000  0.41579582     0.85800
O618        O  0.84688285  0.96087993  0.29704116    -0.66300
O619        O  0.85999533  0.76131660  0.36323179    -0.85600
C620        C  0.83936208  0.96375903  0.32604855     0.86600
C621        C  0.95308848  0.95760708  0.31204803     1.08200
H622        H  0.83602567  0.86378162  0.36261502     0.40000
O623        O  0.86309262  0.85192637  0.35658473    -1.08300
O624        O  0.91151682  0.79809501  0.31703998    -0.64900
Ni625      Ni  0.86144324  0.83667004  0.31367266     1.26300
O626        O  0.85751564  0.93973877  0.34735235    -0.65200
O627        O  0.82465717  0.79049981  0.32221580    -0.77400
C628        C  0.84570391  0.85673040  0.25032579     0.86000
O629        O  0.85914647  0.82689826  0.26965233    -0.64600
Ni630      Ni  0.88045234  0.80641115  0.38624091     1.27400
Ni631      Ni  0.90270631  0.89650107  0.34864229     1.26100
H632        H  0.92526537  0.87047937  0.30069159     0.40500
C633        C  0.81015695  0.90013546  0.10833669     0.88000
C634        C  0.85692307  0.90191576  0.10140272    -0.52300
C635        C  0.88007928  0.86728125  0.11321907     0.10900
C636        C  0.85358643  0.83302788  0.13051491     0.21800
C637        C  0.79658835  0.85877448  0.09525574    -0.53000
C638        C  0.81911121  0.82335906  0.10672042     0.11000
C639        C  0.80717916  0.89277657  0.14404553    -0.52500
C640        C  0.82992397  0.85780185  0.15584812     0.11600
H641        H  0.87097563  0.92927095  0.08943573     0.16100
H642        H  0.87225538  0.80463030  0.14004529     0.01800
H643        H  0.77099163  0.85749323  0.07875585     0.16400
H644        H  0.78994148  0.91435915  0.15882954     0.16200
C645        C  0.49856319  0.87482458  0.07993320     0.88000
C646        C  0.49500138  0.87933403  0.11538118    -0.52300
C647        C  0.46811019  0.91182423  0.12314019     0.10900
C648        C  0.44760571  0.93683038  0.09486332     0.21800
C649        C  0.45415036  0.86970398  0.06888122    -0.53800
C650        C  0.42668476  0.90143352  0.07723199     0.11000
C651        C  0.51116855  0.91791918  0.06611668    -0.52500
C652        C  0.48568318  0.95100341  0.07444041     0.11600
H653        H  0.51136279  0.85815373  0.13271444     0.16100
H654        H  0.42560698  0.96323863  0.10120094     0.01800
H655        H  0.44434036  0.84129426  0.05822236     0.16400
H656        H  0.54088466  0.92237250  0.05403643     0.16200
C657        C  0.10849545  0.58080321  0.32961230     0.88000
C658        C  0.08365376  0.62258849  0.32218837    -0.52300
C659        C  0.09926319  0.65640787  0.33560908     0.10900
C660        C  0.13896324  0.64541405  0.35528604     0.21800
C661        C  0.15373520  0.58932564  0.31918761    -0.53000
C662        C  0.17045288  0.62330151  0.33297679     0.11000
C663        C  0.11040602  0.57552005  0.36537110    -0.52500
C664        C  0.12655101  0.60920549  0.37872466     0.11600
H665        H  0.05494720  0.62493019  0.30851381     0.16100
H666        H  0.15020230  0.67309575  0.36700806     0.01800
H667        H  0.17066353  0.56942305  0.30319519     0.16400
H668        H  0.10079991  0.54720662  0.37888996     0.16200
O669        O  0.19731797  0.65791786  0.02735047    -0.79400
O670        O  0.23880932  0.66659684  0.17355767    -0.64100
O671        O  0.23213727  0.64543103  0.08641504    -1.10700
C672        C  0.14053659  0.54057693  0.12885045     1.07500
O673        O  0.25732411  0.59848360  0.18264173    -0.77300
O674        O  0.25031754  0.53755554  0.13991876    -0.64900
Ni675      Ni  0.21842194  0.69330850  0.05779172     1.34900
C676        C  0.25112636  0.53395438  0.11050449     0.86200
O677        O  0.27441563  0.70328680  0.12213097    -0.77900
O678        O  0.23943028  0.73659492  0.08271974    -0.88100
C679        C  0.25203461  0.63589702  0.19212892     0.85800
O680        O  0.16501816  0.69851430  0.07694662    -0.66300
O681        O  0.16549887  0.53702049  0.15219979    -0.85600
C682        C  0.15823736  0.70483512  0.10561056     0.86600
C683        C  0.26725170  0.73581019  0.10369502     1.08200
H684        H  0.17136210  0.62666805  0.14445988     0.40000
O685        O  0.19737524  0.61455144  0.13654179    -1.08300
O686        O  0.22879798  0.55755451  0.09138030    -0.64900
Ni687      Ni  0.18836190  0.60471030  0.09414023     1.26300
O688        O  0.18637514  0.69844766  0.12697227    -0.65200
O689        O  0.14513894  0.56592361  0.10473400    -0.77400
C690        C  0.18167659  0.62171345  0.02692334     0.86000
O691        O  0.17734160  0.59684284  0.05103456    -0.64600
Ni692      Ni  0.21195142  0.56850692  0.16576856     1.27400
Ni693      Ni  0.23559460  0.65860466  0.12960918     1.26100
H694        H  0.25800221  0.63135978  0.08003339     0.40500
C695        C  0.27798996  0.67585281  0.33660702     0.88000
C696        C  0.23152987  0.66905601  0.34350385    -0.52300
C697        C  0.21529041  0.63559248  0.32902504     0.10900
C698        C  0.24834767  0.61203845  0.30887637     0.21800
C699        C  0.30044275  0.63276427  0.34582954    -0.53000
C700        C  0.28503282  0.59926827  0.33126745     0.11000
C701        C  0.28090724  0.68046084  0.30068892    -0.52500
C702        C  0.26537556  0.64710073  0.28621549     0.11600
H703        H  0.21375295  0.68959776  0.35853752     0.16100
H704        H  0.23686177  0.58478295  0.29669680     0.01800
H705        H  0.32649646  0.62916296  0.36212846     0.16400
H706        H  0.29372598  0.70782174  0.28787212     0.16200
O707        O  0.41582333  0.85751989  0.28009423    -0.79400
O708        O  0.36327088  0.85520425  0.42593736    -0.64100
O709        O  0.37026512  0.86851149  0.33581246    -1.10700
C710        C  0.46005868  0.97839475  0.36135243     1.07500
O711        O  0.34922128  0.92465681  0.42589902    -0.77300
O712        O  0.36280323  0.98745339  0.38103719    -0.64900
Ni713      Ni  0.39248578  0.82169871  0.31340630     1.34900
C714        C  0.34866060  0.98629457  0.35349960     0.86200
O715        O  0.33050055  0.81166843  0.37753782    -0.77900
O716        O  0.36979889  0.77912585  0.34216379    -0.88100
C717        C  0.35210150  0.88830497  0.44042101     0.85800
O718        O  0.44399668  0.81961728  0.33592620    -0.66300
O719        O  0.44659449  0.97495281  0.38949077    -0.85600
C720        C  0.44752199  0.81198964  0.36532630     0.86600
C721        C  0.33836661  0.78033060  0.36039947     1.08200
H722        H  0.43318002  0.89209565  0.38565155     0.40000
O723        O  0.40559497  0.90394076  0.38022254    -1.08300
O724        O  0.35881591  0.95667012  0.33548956    -0.64900
Ni725      Ni  0.40628781  0.91579385  0.33643078     1.26300
O726        O  0.41716173  0.81881414  0.38438889    -0.65200
O727        O  0.44439780  0.96060707  0.33847900    -0.77400
C728        C  0.41592927  0.89725411  0.27289160     0.86000
O729        O  0.40727783  0.92522959  0.29217233    -0.64600
Ni730      Ni  0.39768530  0.94926525  0.40702403     1.27400
Ni731      Ni  0.36776985  0.85841769  0.38053517     1.26100
H732        H  0.34287840  0.87765670  0.32774708     0.40500
C733        C  0.32089650  0.84880580  0.08627283     0.88000
C734        C  0.36695550  0.85645206  0.09298072    -0.52300
C735        C  0.38132387  0.89300764  0.07823005     0.10900
C736        C  0.34792848  0.91844721  0.05815844     0.21800
C737        C  0.29686411  0.88928809  0.09564129    -0.53000
C738        C  0.31110631  0.92592574  0.08122262     0.11000
C739        C  0.31813192  0.84979842  0.05053883    -0.52500
C740        C  0.33258038  0.88563602  0.03561655     0.11600
H741        H  0.38703378  0.83398153  0.10691413     0.16100
H742        H  0.35963895  0.94788672  0.04610997     0.01800
H743        H  0.27156413  0.88909769  0.11272466     0.16400
H744        H  0.30760685  0.82324222  0.03797762     0.16200
C745        C  0.34382603  0.88614971  0.47379571    -0.11800
C746        C  0.33834190  0.88782353  0.00181294    -0.13400
C747        C  0.29494714  0.71266689  0.35194998    -0.11800
C748        C  0.31190755  0.74404167  0.36013077    -0.13400
C749        C  0.30301820  0.55603510  0.33612261    -0.11800
C750        C  0.32143067  0.52198655  0.34228314    -0.13400
C751        C  0.26370112  0.64556991  0.25246839    -0.11800
C752        C  0.26004324  0.64273632  0.22454352    -0.13400
C753        C  0.29021867  0.77408407  0.10588132    -0.11800
C754        C  0.30557698  0.80837312  0.10063292    -0.13400
C755        C  0.27675151  0.49959801  0.09828146    -0.11800
C756        C  0.29414374  0.96755307  0.08918993    -0.13400
C757        C  0.13479085  0.60858626  0.41177108    -0.17000
C758        C  0.14359656  0.60682643  0.43915631     0.07000
C759        C  0.15577663  0.60610059  0.47080298     0.08900
C760        C  0.16738915  0.60960048  0.99721270    -0.17900
C761        C  0.42693276  0.91049632  0.24136150    -0.17000
C762        C  0.43663375  0.91741058  0.21433379     0.07000
C763        C  0.44801450  0.92053338  0.18240435     0.08900
C764        C  0.45741973  0.91892590  0.15518640    -0.17900
C765        C  0.08775425  0.54524328  0.31655091    -0.17000
C766        C  0.06076240  0.52109786  0.31120092     0.07000
C767        C  0.02368509  0.49842169  0.30981001     0.08900
C768        C  0.99087953  0.98076916  0.31072875    -0.17900
C769        C  0.07589103  0.69677131  0.33406675    -0.17000
C770        C  0.04929649  0.72523852  0.33188996     0.07000
C771        C  0.01303246  0.75276584  0.33007075     0.08900
C772        C  0.97981071  0.77248225  0.33121650    -0.17900
C773        C  0.83486784  0.84943250  0.18947846    -0.11800
C774        C  0.83900356  0.84921783  0.21768445    -0.13400
C775        C  0.79063237  0.52849857  0.34445344    -0.11800
C776        C  0.81035994  0.99757676  0.33546693    -0.13400
C777        C  0.79745492  0.68583488  0.34805447    -0.11800
C778        C  0.81097520  0.72065961  0.34205662    -0.13400
C779        C  0.50482456  0.99199592  0.07419888    -0.17000
C780        C  0.53222024  0.01756635  0.07364535     0.07000
C781        C  0.57047509  0.53926415  0.07376546     0.08900
C782        C  0.60494123  0.55356714  0.07615214    -0.17900
C783        C  0.62215559  0.76706335  0.05984367    -0.17000
C784        C  0.59187121  0.79044076  0.06148247     0.07000
C785        C  0.55631857  0.81658374  0.06605569     0.08900
C786        C  0.52805247  0.84098624  0.07180366    -0.17900
C787        C  0.75832829  0.60859587  0.46790187    -0.11800
C788        C  0.76193800  0.60610552  0.43997036    -0.13400
C789        C  0.78685572  0.93902722  0.09642482    -0.11800
C790        C  0.76980799  0.97355750  0.09066693    -0.13400
C791        C  0.79215380  0.75011406  0.08853207    -0.11800
C792        C  0.80839824  0.78122680  0.09778316    -0.13400
C793        C  0.58015444  0.58215213  0.34184268    -0.17000
C794        C  0.55671077  0.55347872  0.34351972     0.07000
C795        C  0.52464924  0.52507921  0.34890619     0.08900
C796        C  0.49530018  0.50354567  0.35479294    -0.17900
C797        C  0.58849726  0.72587889  0.37673760    -0.17000
C798        C  0.55965624  0.75073014  0.38215143     0.07000
C799        C  0.52103423  0.77514328  0.38175242     0.08900
C800        C  0.48712627  0.79314085  0.37680157    -0.17900
C801        C  0.64893966  0.67694135  0.27833671    -0.17000
C802        C  0.65780858  0.67892891  0.25100645     0.07000
C803        C  0.66750970  0.67657046  0.21911997     0.08900
C804        C  0.67530659  0.66864915  0.19257562    -0.17900
C805        C  0.11711906  0.72171202  0.11315940    -0.17000
C806        C  0.08237176  0.73840172  0.11374555     0.07000
C807        C  0.04434404  0.76308351  0.11058649     0.08900
C808        C  0.01697983  0.79068675  0.10742320    -0.17900
C809        C  0.10447451  0.51489474  0.13021484    -0.17000
C810        C  0.07382596  0.99381565  0.13119847     0.07000
C811        C  0.03919547  0.96763511  0.13005599     0.08900
C812        C  0.01323078  0.94223272  0.12515926    -0.17900
C813        C  0.95341163  0.88422414  0.03209064    -0.17000
C814        C  0.94352951  0.89033895  0.50491785     0.07000
C815        C  0.93197323  0.89657593  0.47300688     0.08900
C816        C  0.92187402  0.89600572  0.44587750    -0.17900
C817        C  0.99041263  0.90747211  0.61292743     0.88000
C818        C  0.98484811  0.91355085  0.57741454    -0.52300
C819        C  0.96544178  0.88115262  0.56468338     0.10900
C820        C  0.95380996  0.84487809  0.58869536     0.21800
C821        C  0.94619747  0.90067447  0.62585099    -0.53000
C822        C  0.92649290  0.86797341  0.61291378     0.11000
C823        C  0.01403765  0.86482325  0.61858795    -0.52500
C824        C  0.99534927  0.83195544  0.60601215     0.11600
H825        H  0.99418954  0.94177361  0.56365412     0.16100
H826        H  0.93834085  0.81821901  0.57821468     0.01800
H827        H  0.93032213  0.92238569  0.64125269     0.16400
H828        H  0.04387495  0.86106678  0.63080030     0.16200
C829        C  0.61146043  0.69124197  0.86120105     0.88000
C830        C  0.58412723  0.65280726  0.86045184    -0.52300
C831        C  0.60136437  0.62072677  0.84429616     0.10900
C832        C  0.64430722  0.62942188  0.83009186     0.21800
C833        C  0.65389330  0.67288424  0.87463893    -0.53000
C834        C  0.67128681  0.63990345  0.85806552     0.11000
C835        C  0.62071068  0.70412049  0.82686313    -0.52500
C836        C  0.63798905  0.67181240  0.81082457     0.11600
H837        H  0.55363447  0.65102182  0.87179465     0.16100
H838        H  0.65705429  0.60343972  0.81598859     0.01800
H839        H  0.66826055  0.68491261  0.89502763     0.16400
H840        H  0.61396863  0.73584136  0.81612763     0.16200
O841        O  0.68600436  0.61124309  0.66241385    -0.79400
O842        O  0.73300099  0.58829749  0.51823953    -0.64100
O843        O  0.72787569  0.61117359  0.60514866    -1.10700
C844        C  0.65512957  0.73550712  0.56036261     1.07500
O845        O  0.76172733  0.65060385  0.51073426    -0.77300
O846        O  0.75785749  0.71884287  0.54805017    -0.64900
Ni847      Ni  0.70400719  0.56960566  0.63380369     1.34900
C848        C  0.76425179  0.71921835  0.57729815     0.86200
O849        O  0.76075040  0.54449644  0.57084999    -0.77900
O850        O  0.72129707  0.52109389  0.61075053    -0.88100
C851        C  0.75138221  0.61556253  0.50042901     0.85800
O852        O  0.65168047  0.57498149  0.61264091    -0.66300
O853        O  0.67475746  0.72965065  0.53483862    -0.85600
C854        C  0.64609614  0.56705067  0.58425428     0.86600
C855        C  0.74967826  0.51522975  0.59044417     1.08200
H856        H  0.67084640  0.64369654  0.54824095     0.40000
O857        O  0.69884046  0.64950762  0.55479387    -1.08300
O858        O  0.74476394  0.69624445  0.59745479    -0.64900
Ni859      Ni  0.69504887  0.66361113  0.59681836     1.26300
O860        O  0.67564222  0.56835482  0.56370548    -0.65200
O861        O  0.66157645  0.71397520  0.58622497    -0.77400
C862        C  0.68426637  0.65145335  0.66309169     0.86000
O863        O  0.69003571  0.67653089  0.63943749    -0.64600
Ni864      Ni  0.71859683  0.68986224  0.52387553     1.27400
Ni865      Ni  0.72950180  0.59702113  0.56216864     1.26100
H866        H  0.75573863  0.61685437  0.61196427     0.40500
C867        C  0.77377612  0.56828977  0.85785041     0.88000
C868        C  0.72705706  0.58055937  0.85160601    -0.52300
C869        C  0.71331124  0.61801161  0.86443181     0.10900
C870        C  0.74774059  0.63839432  0.88264484     0.21800
C871        C  0.79704604  0.60772622  0.84572127    -0.53000
C872        C  0.78293811  0.64440279  0.85838158     0.11000
C873        C  0.77793874  0.56659093  0.89350672    -0.52500
C874        C  0.76413454  0.60299587  0.90648034     0.11600
H875        H  0.70749555  0.56158510  0.83783095     0.16100
H876        H  0.73776604  0.66836968  0.89339668     0.01800
H877        H  0.82147197  0.60693160  0.82796293     0.16400
H878        H  0.78970305  0.53858451  0.90739008     0.16200
O879        O  0.83948067  0.89432854  0.75922509    -0.79400
O880        O  0.90870994  0.90871496  0.89185284    -0.64100
O881        O  0.89812147  0.88222913  0.80653865    -1.10700
C882        C  0.83249122  0.75979015  0.84226478     1.07500
O883        O  0.90136791  0.84400633  0.91506159    -0.77300
O884        O  0.93362095  0.80139064  0.86652490    -0.64900
Ni885      Ni  0.88522754  0.92511546  0.77442404     1.34900
C886        C  0.93975243  0.79235960  0.83830852     0.86200
O887        O  0.94342271  0.93834468  0.83810241    -0.77900
O888        O  0.93239984  0.95625728  0.78668518    -0.88100
C889        C  0.90983429  0.88275999  0.91579581     0.85800
O890        O  0.84688286  0.96087992  0.79704118    -0.66300
O891        O  0.85999530  0.76131663  0.86323183    -0.85600
C892        C  0.83936209  0.96375901  0.82604857     0.86600
C893        C  0.95308848  0.95760706  0.81204803     1.08200
H894        H  0.83602556  0.86378163  0.86261505     0.40000
O895        O  0.86309270  0.85192632  0.85658473    -1.08300
O896        O  0.91151686  0.79809497  0.81703998    -0.64900
Ni897      Ni  0.86144330  0.83667002  0.81367265     1.26300
O898        O  0.85751565  0.93973872  0.84735235    -0.65200
O899        O  0.82465722  0.79049980  0.82221578    -0.77400
C900        C  0.84570399  0.85673038  0.75032578     0.86000
O901        O  0.85914656  0.82689825  0.76965233    -0.64600
Ni902      Ni  0.88045243  0.80641115  0.88624092     1.27400
Ni903      Ni  0.90270633  0.89650104  0.84864230     1.26100
H904        H  0.92526530  0.87047940  0.80069161     0.40500
C905        C  0.81015701  0.90013547  0.60833668     0.88000
C906        C  0.85692313  0.90191577  0.60140269    -0.52300
C907        C  0.88007934  0.86728127  0.61321905     0.10900
C908        C  0.85358650  0.83302789  0.63051490     0.21800
C909        C  0.79658841  0.85877449  0.59525575    -0.53000
C910        C  0.81911125  0.82335906  0.60672043     0.11000
C911        C  0.80717925  0.89277660  0.64404552    -0.52500
C912        C  0.82992407  0.85780188  0.65584811     0.11600
H913        H  0.87097567  0.92927097  0.58943570     0.16100
H914        H  0.87225545  0.80463031  0.64004528     0.01800
H915        H  0.77099167  0.85749324  0.57875589     0.16400
H916        H  0.78994159  0.91435920  0.65882953     0.16200
C917        C  0.49856323  0.87482459  0.57993319     0.88000
C918        C  0.49500146  0.87933403  0.61538118    -0.52300
C919        C  0.46811024  0.91182420  0.62314020     0.10900
C920        C  0.44760572  0.93683037  0.59486334     0.21800
C921        C  0.45415040  0.86970396  0.56888123    -0.53800
C922        C  0.42668479  0.90143349  0.57723201     0.11000
C923        C  0.51116855  0.91791920  0.56611666    -0.52500
C924        C  0.48568318  0.95100342  0.57444042     0.11600
H925        H  0.51136291  0.85815374  0.63271442     0.16100
H926        H  0.42560699  0.96323861  0.60120097     0.01800
H927        H  0.44434041  0.84129423  0.55822238     0.16400
H928        H  0.54088466  0.92237254  0.55403640     0.16200
C929        C  0.10849546  0.58080320  0.82961227     0.88000
C930        C  0.08365381  0.62258850  0.82218831    -0.52300
C931        C  0.09926323  0.65640788  0.83560903     0.10900
C932        C  0.13896326  0.64541404  0.85528601     0.21800
C933        C  0.15373521  0.58932562  0.81918759    -0.53000
C934        C  0.17045290  0.62330150  0.83297677     0.11000
C935        C  0.11040601  0.57552005  0.86537106    -0.52500
C936        C  0.12655102  0.60920549  0.87872462     0.11600
H937        H  0.05494727  0.62493020  0.80851374     0.16100
H938        H  0.15020232  0.67309575  0.86700804     0.01800
H939        H  0.17066356  0.56942302  0.80319518     0.16400
H940        H  0.10079984  0.54720665  0.87888992     0.16200
O941        O  0.19731802  0.65791785  0.52735048    -0.79400
O942        O  0.23880947  0.66659684  0.67355763    -0.64100
O943        O  0.23213734  0.64543097  0.58641501    -1.10700
C944        C  0.14053653  0.54057696  0.62885046     1.07500
O945        O  0.25732408  0.59848357  0.68264177    -0.77300
O946        O  0.25031752  0.53755552  0.63991880    -0.64900
Ni947      Ni  0.21842195  0.69330850  0.55779172     1.34900
C948        C  0.25112636  0.53395434  0.61050452     0.86200
O949        O  0.27441574  0.70328675  0.62213087    -0.77900
O950        O  0.23943025  0.73659493  0.58271976    -0.88100
C951        C  0.25203467  0.63589702  0.69212892     0.85800
O952        O  0.16501816  0.69851429  0.57694662    -0.66300
O953        O  0.16549881  0.53702051  0.65219980    -0.85600
C954        C  0.15823737  0.70483510  0.60561057     0.86600
C955        C  0.26725175  0.73581016  0.60369497     1.08200
H956        H  0.17136207  0.62666808  0.64445989     0.40000
O957        O  0.19737528  0.61455143  0.63654178    -1.08300
O958        O  0.22879796  0.55755443  0.59138033    -0.64900
Ni959      Ni  0.18836192  0.60471027  0.59414024     1.26300
O960        O  0.18637519  0.69844764  0.62697226    -0.65200
O961        O  0.14513890  0.56592364  0.60473401    -0.77400
C962        C  0.18167667  0.62171343  0.52692335     0.86000
O963        O  0.17734167  0.59684281  0.55103457    -0.64600
Ni964      Ni  0.21195138  0.56850691  0.66576858     1.27400
Ni965      Ni  0.23559467  0.65860464  0.62960914     1.26100
H966        H  0.25800210  0.63135979  0.58003338     0.40500
C967        C  0.27798995  0.67585284  0.83660701     0.88000
C968        C  0.23152987  0.66905601  0.84350383    -0.52300
C969        C  0.21529041  0.63559246  0.82902503     0.10900
C970        C  0.24834768  0.61203846  0.80887637     0.21800
C971        C  0.30044276  0.63276432  0.84582953    -0.53000
C972        C  0.28503284  0.59926831  0.83126744     0.11000
C973        C  0.28090721  0.68046088  0.80068892    -0.52500
C974        C  0.26537554  0.64710076  0.78621549     0.11600
H975        H  0.21375294  0.68959779  0.85853747     0.16100
H976        H  0.23686179  0.58478294  0.79669681     0.01800
H977        H  0.32649651  0.62916304  0.86212843     0.16400
H978        H  0.29372594  0.70782178  0.78787212     0.16200
O979        O  0.41582343  0.85751991  0.78009427    -0.79400
O980        O  0.36327091  0.85520426  0.92593738    -0.64100
O981        O  0.37026509  0.86851150  0.83581247    -1.10700
C982        C  0.46005866  0.97839475  0.86135243     1.07500
O983        O  0.34922128  0.92465681  0.92589905    -0.77300
O984        O  0.36280319  0.98745338  0.88103722    -0.64900
Ni985      Ni  0.39248580  0.82169874  0.81340631     1.34900
C986        C  0.34866060  0.98629460  0.85349962     0.86200
O987        O  0.33050058  0.81166841  0.87753786    -0.77900
O988        O  0.36979885  0.77912587  0.84216376    -0.88100
C989        C  0.35210150  0.88830497  0.94042103     0.85800
O990        O  0.44399667  0.81961729  0.83592623    -0.66300
O991        O  0.44659446  0.97495283  0.88949077    -0.85600
C992        C  0.44752196  0.81198965  0.86532633     0.86600
C993        C  0.33836662  0.78033060  0.86039950     1.08200
H994        H  0.43318001  0.89209567  0.88565155     0.40000
O995        O  0.40559495  0.90394077  0.88022255    -1.08300
O996        O  0.35881592  0.95667017  0.83548957    -0.64900
Ni997      Ni  0.40628779  0.91579386  0.83643079     1.26300
O998        O  0.41716171  0.81881416  0.88438891    -0.65200
O999        O  0.44439780  0.96060704  0.83847901    -0.77400
C1000       C  0.41592930  0.89725413  0.77289163     0.86000
O1001       O  0.40727779  0.92522960  0.79217234    -0.64600
Ni1002     Ni  0.39768528  0.94926526  0.90702405     1.27400
Ni1003     Ni  0.36776985  0.85841769  0.88053519     1.26100
H1004       H  0.34287837  0.87765670  0.82774709     0.40500
C1005       C  0.32089650  0.84880581  0.58627284     0.88000
C1006       C  0.36695551  0.85645205  0.59298072    -0.52300
C1007       C  0.38132389  0.89300761  0.57823005     0.10900
C1008       C  0.34792851  0.91844720  0.55815844     0.21800
C1009       C  0.29686415  0.88928811  0.59564133    -0.53000
C1010       C  0.31110636  0.92592575  0.58122263     0.11000
C1011       C  0.31813190  0.84979843  0.55053884    -0.52500
C1012       C  0.33258039  0.88563601  0.53561655     0.11600
H1013       H  0.38703378  0.83398152  0.60691412     0.16100
H1014       H  0.35963900  0.94788670  0.54610998     0.01800
H1015       H  0.27156421  0.88909773  0.61272472     0.16400
H1016       H  0.30760682  0.82324223  0.53797763     0.16200
C1017       C  0.34382596  0.88614971  0.97379572    -0.11800
C1018       C  0.33834197  0.88782350  0.50181294    -0.13400
C1019       C  0.29494713  0.71266691  0.85194998    -0.11800
C1020       C  0.31190757  0.74404166  0.86013080    -0.13400
C1021       C  0.30301831  0.55603518  0.83612254    -0.11800
C1022       C  0.32143078  0.52198662  0.84228307    -0.13400
C1023       C  0.26370113  0.64556992  0.75246839    -0.11800
C1024       C  0.26004327  0.64273634  0.72454351    -0.13400
C1025       C  0.29021870  0.77408406  0.60588128    -0.11800
C1026       C  0.30557699  0.80837313  0.60063292    -0.13400
C1027       C  0.27675158  0.49959801  0.59828151    -0.11800
C1028       C  0.29414380  0.96755308  0.58918992    -0.13400
C1029       C  0.13479082  0.60858628  0.91177104    -0.17000
C1030       C  0.14359649  0.60682646  0.93915628     0.07000
C1031       C  0.15577653  0.60610061  0.97080296     0.08900
C1032       C  0.16738925  0.60960046  0.49721271    -0.17900
C1033       C  0.42693280  0.91049634  0.74136153    -0.17000
C1034       C  0.43663377  0.91741056  0.71433381     0.07000
C1035       C  0.44801451  0.92053331  0.68240437     0.08900
C1036       C  0.45741974  0.91892582  0.65518641    -0.17900
C1037       C  0.08775423  0.54524327  0.81655090    -0.17000
C1038       C  0.06076236  0.52109786  0.81120092     0.07000
C1039       C  0.02368504  0.49842172  0.80980999     0.08900
C1040       C  0.99087953  0.98076912  0.81072873    -0.17900
C1041       C  0.07589108  0.69677132  0.83406673    -0.17000
C1042       C  0.04929656  0.72523855  0.83188998     0.07000
C1043       C  0.01303253  0.75276587  0.83007076     0.08900
C1044       C  0.97981078  0.77248227  0.83121649    -0.17900
C1045       C  0.83486796  0.84943252  0.68947844    -0.11800
C1046       C  0.83900368  0.84921782  0.71768444    -0.13400
C1047       C  0.79063236  0.52849860  0.84445341    -0.11800
C1048       C  0.81035999  0.99757676  0.83546697    -0.13400
C1049       C  0.79745491  0.68583491  0.84805447    -0.11800
C1050       C  0.81097521  0.72065963  0.84205662    -0.13400
C1051       C  0.50482461  0.99199593  0.57419892    -0.17000
C1052       C  0.53222031  0.01756632  0.57364538     0.07000
C1053       C  0.57047510  0.53926413  0.57376548     0.08900
C1054       C  0.60494125  0.55356712  0.57615216    -0.17900
C1055       C  0.62215561  0.76706334  0.55984367    -0.17000
C1056       C  0.59187123  0.79044076  0.56148248     0.07000
C1057       C  0.55631860  0.81658375  0.56605570     0.08900
C1058       C  0.52805250  0.84098626  0.57180365    -0.17900
C1059       C  0.75832827  0.60859587  0.96790186    -0.11800
C1060       C  0.76193801  0.60610547  0.93997036    -0.13400
C1061       C  0.78685575  0.93902720  0.59642480    -0.11800
C1062       C  0.76980800  0.97355748  0.59066691    -0.13400
C1063       C  0.79215378  0.75011408  0.58853209    -0.11800
C1064       C  0.80839823  0.78122681  0.59778319    -0.13400
C1065       C  0.58015440  0.58215214  0.84184268    -0.17000
C1066       C  0.55671073  0.55347873  0.84351973     0.07000
C1067       C  0.52464923  0.52507920  0.84890621     0.08900
C1068       C  0.49530017  0.50354566  0.85479297    -0.17900
C1069       C  0.58849719  0.72587888  0.87673760    -0.17000
C1070       C  0.55965617  0.75073012  0.88215145     0.07000
C1071       C  0.52103418  0.77514326  0.88175245     0.08900
C1072       C  0.48712623  0.79314084  0.87680160    -0.17900
C1073       C  0.64893978  0.67694137  0.77833674    -0.17000
C1074       C  0.65780869  0.67892893  0.75100647     0.07000
C1075       C  0.66750971  0.67657047  0.71911996     0.08900
C1076       C  0.67530655  0.66864914  0.69257561    -0.17900
C1077       C  0.11711906  0.72171199  0.61315942    -0.17000
C1078       C  0.08237175  0.73840167  0.61374557     0.07000
C1079       C  0.04434403  0.76308347  0.61058652     0.08900
C1080       C  0.01697985  0.79068675  0.60742323    -0.17900
C1081       C  0.10447443  0.51489478  0.63021483    -0.17000
C1082       C  0.07382601  0.99381570  0.63119840     0.07000
C1083       C  0.03919550  0.96763518  0.63005594     0.08900
C1084       C  0.01323082  0.94223277  0.62515925    -0.17900
C1085       C  0.95341168  0.88422416  0.53209064    -0.17000
C1086       C  0.94352944  0.89033895  0.00491786     0.07000
C1087       C  0.93197323  0.89657595  0.97300688     0.08900
C1088       C  0.92187410  0.89600574  0.94587748    -0.17900
loop_ 
_geom_bond_atom_site_label_1 
_geom_bond_atom_site_label_2 
_geom_bond_distance 
_geom_bond_site_symmetry_2 
_ccdc_geom_bond_type 
C1            C2   1.530       .  S
C1            C7   1.519   1_655  S
C1            C5   1.533       .  S
C1          C268   1.465   1_655  S
C2            H9   1.087       .  S
C2            C3   1.359       .  D
C3            C4   1.545       .  S
C3          C269   1.445       .  S
C4            C8   1.550       .  S
C4            C6   1.546       .  S
C4           H10   1.111       .  S
C5           H11   1.086       .  S
C5            C6   1.376       .  D
C6           C91   1.483       .  S
C7           H12   1.088       .  S
C7            C8   1.357   1_455  D
C8          C264   1.443   1_655  S
C13          C14   1.525       .  S
C13          C19   1.530       .  S
C13          C17   1.550       .  S
C13         C253   1.478       .  S
C14          H21   1.088       .  S
C14          C15   1.355       .  D
C15          C16   1.526       .  S
C15         C249   1.426       .  S
C16          C20   1.532       .  S
C16          C18   1.539       .  S
C16          H22   1.108       .  S
C17          H23   1.084       .  S
C17          C18   1.388       .  D
C18          C53   1.501       .  S
C19          H24   1.087       .  S
C19          C20   1.358       .  D
C20         C257   1.433       .  S
O25         Ni31   1.916       .  S
O25          C46   1.267       .  A
O26         Ni49   1.918       .  S
O26          C35   1.273       .  A
O27         Ni31   1.917       .  S
O27         Ni49   1.918       .  S
O27         Ni43   1.933       .  S
O27          H50   0.965       .  S
C28          O45   1.275       .  A
C28          O37   1.275       .  A
C28         C239   1.416       .  S
O29         Ni48   1.916       .  S
O29          C35   1.270       .  A
O30         Ni48   1.924       .  S
O30          C32   1.270       .  A
Ni31         O34   1.928       .  S
Ni31         O36   1.901       .  S
C32          O42   1.269       .  A
C32         C247   1.452       .  S
O33         Ni49   1.912       .  S
O33          C39   1.268       .  A
O34          C39   1.268       .  A
C35         C515   1.436   1_554  S
O36          C38   1.270       .  A
O37         Ni48   1.914       .  S
C38          O44   1.286       .  A
C38         C238   1.449       .  S
C39         C790   1.436   1_545  S
H40          O41   0.967       .  S
O41         Ni49   1.895       .  S
O41         Ni43   1.880       .  S
O41         Ni48   1.902       .  S
O42         Ni43   1.929       .  S
Ni43         O47   1.897       .  S
Ni43         O45   1.907       .  S
O44         Ni49   1.976       .  S
C46          O47   1.263       .  A
C46         C260   1.426       .  S
C51          C52   1.546       .  S
C51          C57   1.529       .  S
C51          C55   1.536       .  S
C51         C231   1.488       .  S
C52          H59   1.084       .  S
C52          C53   1.384       .  D
C53          C54   1.536       .  S
C54          C58   1.540       .  S
C54          C56   1.536       .  S
C54          H60   1.109       .  S
C55          H61   1.087       .  S
C55          C56   1.364       .  D
C56         C233   1.446       .  S
C57          H62   1.087       .  S
C57          C58   1.360       .  D
C58         C244   1.443       .  S
O63         Ni69   1.925       .  S
O63          C84   1.273       .  A
O64         Ni87   1.923       .  S
O64          C73   1.270       .  A
O65         Ni69   1.900       .  S
O65         Ni87   1.891       .  S
O65         Ni81   1.900       .  S
O65          H88   0.966       .  S
C66          O83   1.270       .  A
C66          O75   1.263       .  A
C66         C234   1.437       .  S
O67         Ni86   1.904       .  S
O67          C73   1.264       .  A
O68         Ni86   1.897       .  S
O68          C70   1.269       .  A
Ni69         O72   1.925       .  S
Ni69         O74   1.925       .  S
C70          O80   1.284       .  A
C70         C228   1.439       .  S
O71         Ni87   1.923       .  S
O71          C77   1.279       .  A
O72          C77   1.277       .  A
C73         C272   1.436       .  S
O74          C76   1.271       .  A
O75         Ni86   1.916       .  S
C76          O82   1.274       .  A
C76         C232   1.455       .  S
C77         C224   1.436       .  S
H78          O79   0.967       .  S
O79         Ni87   1.943       .  S
O79         Ni81   1.927       .  S
O79         Ni86   1.920       .  S
O80         Ni81   1.967       .  S
Ni81         O85   1.929       .  S
Ni81         O83   1.925       .  S
O82         Ni87   1.940       .  S
C84          O85   1.275       .  A
C84         C230   1.449       .  S
C89          C90   1.524       .  S
C89          C95   1.534       .  S
C89          C93   1.529       .  S
C89         C245   1.471       .  S
C90          H97   1.087       .  S
C90          C91   1.363       .  D
C91          C92   1.549       .  S
C92          C96   1.549       .  S
C92          C94   1.556       .  S
C92          H98   1.111       .  S
C93          H99   1.087       .  S
C93          C94   1.367       .  D
C94         C248   1.458       .  S
C95         H100   1.087       .  S
C95          C96   1.365       .  D
C96         C229   1.455       .  S
C101        C102   1.535       .  S
C101        C107   1.516       .  S
C101        C105   1.516       .  S
C101        C242   1.449       .  S
C102        H109   1.087       .  S
C102        C103   1.363       .  D
C103        C104   1.536       .  S
C103        C220   1.439       .  S
C104        C108   1.558       .  S
C104        C106   1.559       .  S
C104        H110   1.111       .  S
C105        H111   1.087       .  S
C105        C106   1.364       .  D
C106        C191   1.484       .  S
C107        H112   1.088       .  S
C107        C108   1.358       .  D
C108        C235   1.451       .  S
C113        C114   1.524       .  S
C113        C119   1.530       .  S
C113        C117   1.540       .  S
C113        C221   1.466       .  S
C114        H121   1.088       .  S
C114        C115   1.355       .  D
C115        C116   1.541       .  S
C115        C225   1.444       .  S
C116        C120   1.535       .  S
C116        C118   1.555       .  S
C116        H122   1.106       .  S
C117        H123   1.083       .  S
C117        C118   1.381       .  D
C118        C153   1.505       .  S
C119        H124   1.087       .  S
C119        C120   1.357       .  D
C120        C213   1.438       .  S
O125       Ni131   1.909       .  S
O125        C146   1.265       .  A
O126       Ni149   1.916       .  S
O126        C135   1.272       .  A
O127       Ni131   1.920       .  S
O127       Ni149   1.923       .  S
O127       Ni143   1.951       .  S
O127        H150   0.966       .  S
C128        O145   1.277       .  A
C128        O137   1.278       .  A
C128        C265   1.435       .  S
O129       Ni148   1.930       .  S
O129        C135   1.274       .  A
O130       Ni148   1.921       .  S
O130        C132   1.270       .  A
Ni131       O134   1.926       .  S
Ni131       O136   1.893       .  S
C132        O142   1.271       .  A
C132        C211   1.450   1_545  S
O133       Ni149   1.926       .  S
O133        C139   1.267       .  A
O134        C139   1.265       .  A
C135        C208   1.442       .  S
O136        C138   1.270       .  A
O137       Ni148   1.931       .  S
C138        O144   1.286       .  A
C138        C261   1.438       .  S
C139        C209   1.446       .  S
H140        O141   0.967       .  S
O141       Ni149   1.896       .  S
O141       Ni143   1.885       .  S
O141       Ni148   1.900       .  S
O142       Ni143   1.934       .  S
Ni143       O147   1.912       .  S
Ni143       O145   1.917       .  S
O144       Ni149   1.968       .  S
C146        O147   1.267       .  A
C146        C216   1.432   1_554  S
C151        C152   1.533       .  S
C151        C157   1.537       .  S
C151        C155   1.538       .  S
C151        C203   1.490       .  S
C152        H159   1.082       .  S
C152        C153   1.376       .  D
C153        C154   1.552       .  S
C154        C158   1.539       .  S
C154        C156   1.542       .  S
C154        H160   1.108       .  S
C155        H161   1.086       .  S
C155        C156   1.368       .  D
C156        C205   1.458       .  S
C157        H162   1.087       .  S
C157        C158   1.364       .  D
C158        C207   1.449       .  S
O163       Ni169   1.929       .  S
O163        C184   1.270       .  A
O164       Ni187   1.944       .  S
O164        C173   1.282       .  A
O165       Ni169   1.916       .  S
O165       Ni187   1.922       .  S
O165       Ni181   1.922       .  S
O165        H188   0.968       .  S
C166        O183   1.272       .  A
C166        O175   1.276       .  A
C166        C796   1.421       .  S
O167       Ni186   1.913       .  S
O167        C173   1.269       .  A
O168       Ni186   1.913       .  S
O168        C170   1.267       .  A
Ni169       O172   1.925       .  S
Ni169       O174   1.908       .  S
C170        O180   1.276       .  A
C170        C750   1.451       .  S
O171       Ni187   1.943       .  S
O171        C177   1.281       .  A
O172        C177   1.269       .  A
C173        C201   1.449       .  S
O174        C176   1.271       .  A
O175       Ni186   1.918       .  S
C176        O182   1.283       .  A
C176        C256   1.449       .  S
C177        C204   1.451       .  S
H178        O179   0.966       .  S
O179       Ni187   1.913       .  S
O179       Ni181   1.888       .  S
O179       Ni186   1.893       .  S
O180       Ni181   1.945       .  S
Ni181       O185   1.899       .  S
Ni181       O183   1.909       .  S
O182       Ni187   1.970       .  S
C184        O185   1.264       .  A
C184        C217   1.434       .  S
C189        C190   1.532       .  S
C189        C195   1.530       .  S
C189        C193   1.533       .  S
C189        C210   1.481       .  S
C190        H197   1.087       .  S
C190        C191   1.374       .  D
C191        C192   1.539       .  S
C192        C196   1.552       .  S
C192        C194   1.550       .  S
C192        H198   1.111       .  S
C193        H199   1.086       .  S
C193        C194   1.369       .  D
C194        C212   1.456       .  S
C195        H200   1.087       .  S
C195        C196   1.359       .  D
C196        C202   1.455       .  S
C201        C474   1.214       .  T
C202        C473   1.214   1_554  T
C203        C204   1.218       .  T
C205        C206   1.216       .  T
C206        C714   1.451   1_545  S
C207        C208   1.210       .  T
C209        C210   1.213       .  T
C211        C756   1.215       .  T
C212        C755   1.215       .  T
C213        C214   1.204       .  T
C214        C215   1.409       .  S
C215        C488   1.204       .  T
C216        C487   1.204       .  T
C217        C218   1.205       .  T
C218        C219   1.410       .  S
C219        C220   1.204       .  T
C221        C222   1.206       .  T
C222        C223   1.412   1_545  S
C223        C768   1.206   1_455  T
C224        C767   1.206   1_655  T
C225        C226   1.208       .  T
C226        C227   1.416       .  S
C227        C228   1.208   1_455  T
C229        C230   1.214       .  T
C231        C776   1.218   1_545  T
C232        C775   1.218       .  T
C233        C234   1.208       .  T
C235        C236   1.214       .  T
C236        C781   1.426       .  S
C237        C238   1.214       .  T
C237        C780   1.426       .  S
C239        C240   1.194       .  T
C240        C241   1.394       .  S
C241        C242   1.195       .  T
C243        C307   1.436       .  S
C243        C244   1.207       .  T
C245        C246   1.207       .  T
C246        C583   1.436       .  S
C247        C248   1.216       .  T
C249        C250   1.196       .  T
C250        C251   1.397       .  S
C251        C252   1.197       .  T
C252        C710   1.421   1_545  S
C253        C254   1.213       .  T
C254        C255   1.425       .  S
C255        C256   1.214       .  T
C257        C258   1.200       .  T
C258        C259   1.403       .  S
C259        C260   1.200       .  T
C261        C262   1.208       .  T
C262        C263   1.416       .  S
C263        C264   1.208       .  T
C265        C810   1.205   1_545  T
C266        C809   1.205       .  T
C266        C267   1.411       .  S
C267        C268   1.205       .  T
C269        C542   1.208       .  T
C270        C541   1.208       .  T
C270        C271   1.416       .  S
C271        C272   1.208       .  T
C273        C274   1.530       .  S
C273        C279   1.519   1_655  S
C273        C277   1.533       .  S
C273        C540   1.465   1_655  S
C274        H281   1.087       .  S
C274        C275   1.359       .  D
C275        C276   1.545       .  S
C275        C541   1.445       .  S
C276        C280   1.550       .  S
C276        C278   1.546       .  S
C276        H282   1.111       .  S
C277        H283   1.086       .  S
C277        C278   1.376       .  D
C278        C363   1.483       .  S
C279        H284   1.088       .  S
C279        C280   1.357   1_455  D
C280        C536   1.443   1_655  S
C285        C286   1.525       .  S
C285        C291   1.530       .  S
C285        C289   1.550       .  S
C285        C525   1.478       .  S
C286        H293   1.088       .  S
C286        C287   1.355       .  D
C287        C288   1.526       .  S
C287        C521   1.426       .  S
C288        C292   1.532       .  S
C288        C290   1.539       .  S
C288        H294   1.108       .  S
C289        H295   1.084       .  S
C289        C290   1.388       .  D
C290        C325   1.501       .  S
C291        H296   1.087       .  S
C291        C292   1.358       .  D
C292        C529   1.433       .  S
O297       Ni303   1.916       .  S
O297        C318   1.267       .  A
O298       Ni321   1.918       .  S
O298        C307   1.273       .  A
O299       Ni303   1.917       .  S
O299       Ni321   1.918       .  S
O299       Ni315   1.933       .  S
O299        H322   0.965       .  S
C300        O317   1.275       .  A
C300        O309   1.275       .  A
C300        C511   1.416       .  S
O301       Ni320   1.916       .  S
O301        C307   1.270       .  A
O302       Ni320   1.924       .  S
O302        C304   1.270       .  A
Ni303       O306   1.928       .  S
Ni303       O308   1.901       .  S
C304        O314   1.269       .  A
C304        C519   1.452       .  S
O305       Ni321   1.912       .  S
O305        C311   1.268       .  A
O306        C311   1.268       .  A
O308        C310   1.270       .  A
O309       Ni320   1.914       .  S
C310        O316   1.286       .  A
C310        C510   1.449       .  S
C311       C1062   1.436   1_545  S
H312        O313   0.967       .  S
O313       Ni321   1.895       .  S
O313       Ni315   1.880       .  S
O313       Ni320   1.902       .  S
O314       Ni315   1.929       .  S
Ni315       O319   1.897       .  S
Ni315       O317   1.907       .  S
O316       Ni321   1.976       .  S
C318        O319   1.263       .  A
C318        C532   1.426       .  S
C323        C324   1.546       .  S
C323        C329   1.529       .  S
C323        C327   1.536       .  S
C323        C503   1.488       .  S
C324        H331   1.084       .  S
C324        C325   1.384       .  D
C325        C326   1.536       .  S
C326        C330   1.540       .  S
C326        C328   1.536       .  S
C326        H332   1.109       .  S
C327        H333   1.087       .  S
C327        C328   1.364       .  D
C328        C505   1.446       .  S
C329        H334   1.087       .  S
C329        C330   1.360       .  D
C330        C516   1.443       .  S
O335       Ni341   1.925       .  S
O335        C356   1.273       .  A
O336       Ni359   1.923       .  S
O336        C345   1.270       .  A
O337       Ni341   1.900       .  S
O337       Ni359   1.891       .  S
O337       Ni353   1.900       .  S
O337        H360   0.966       .  S
C338        O355   1.270       .  A
C338        O347   1.263       .  A
C338        C506   1.437       .  S
O339       Ni358   1.904       .  S
O339        C345   1.264       .  A
O340       Ni358   1.897       .  S
O340        C342   1.269       .  A
Ni341       O344   1.925       .  S
Ni341       O346   1.925       .  S
C342        O352   1.284       .  A
C342        C500   1.439       .  S
O343       Ni359   1.923       .  S
O343        C349   1.279       .  A
O344        C349   1.277       .  A
C345        C544   1.436       .  S
O346        C348   1.271       .  A
O347       Ni358   1.916       .  S
C348        O354   1.274       .  A
C348        C504   1.455       .  S
C349        C496   1.436       .  S
H350        O351   0.967       .  S
O351       Ni359   1.943       .  S
O351       Ni353   1.927       .  S
O351       Ni358   1.920       .  S
O352       Ni353   1.967       .  S
Ni353       O357   1.929       .  S
Ni353       O355   1.925       .  S
O354       Ni359   1.940       .  S
C356        O357   1.275       .  A
C356        C502   1.449       .  S
C361        C362   1.524       .  S
C361        C367   1.534       .  S
C361        C365   1.529       .  S
C361        C517   1.471       .  S
C362        H369   1.087       .  S
C362        C363   1.363       .  D
C363        C364   1.549       .  S
C364        C368   1.549       .  S
C364        C366   1.556       .  S
C364        H370   1.111       .  S
C365        H371   1.087       .  S
C365        C366   1.367       .  D
C366        C520   1.458       .  S
C367        H372   1.087       .  S
C367        C368   1.365       .  D
C368        C501   1.455       .  S
C373        C374   1.535       .  S
C373        C379   1.516       .  S
C373        C377   1.516       .  S
C373        C514   1.449       .  S
C374        H381   1.087       .  S
C374        C375   1.363       .  D
C375        C376   1.536       .  S
C375        C492   1.439       .  S
C376        C380   1.558       .  S
C376        C378   1.559       .  S
C376        H382   1.111       .  S
C377        H383   1.087       .  S
C377        C378   1.364       .  D
C378        C463   1.484       .  S
C379        H384   1.088       .  S
C379        C380   1.358       .  D
C380        C507   1.451       .  S
C385        C386   1.524       .  S
C385        C391   1.530       .  S
C385        C389   1.540       .  S
C385        C493   1.466       .  S
C386        H393   1.088       .  S
C386        C387   1.355       .  D
C387        C388   1.541       .  S
C387        C497   1.444       .  S
C388        C392   1.535       .  S
C388        C390   1.555       .  S
C388        H394   1.106       .  S
C389        H395   1.083       .  S
C389        C390   1.381       .  D
C390        C425   1.505       .  S
C391        H396   1.087       .  S
C391        C392   1.357       .  D
C392        C485   1.438       .  S
O397       Ni403   1.909       .  S
O397        C418   1.265       .  A
O398       Ni421   1.916       .  S
O398        C407   1.272       .  A
O399       Ni403   1.920       .  S
O399       Ni421   1.923       .  S
O399       Ni415   1.951       .  S
O399        H422   0.966       .  S
C400        O417   1.277       .  A
C400        O409   1.278       .  A
C400        C537   1.435       .  S
O401       Ni420   1.930       .  S
O401        C407   1.274       .  A
O402       Ni420   1.921       .  S
O402        C404   1.270       .  A
Ni403       O406   1.926       .  S
Ni403       O408   1.893       .  S
C404        O414   1.271       .  A
C404        C483   1.450   1_545  S
O405       Ni421   1.926       .  S
O405        C411   1.267       .  A
O406        C411   1.265       .  A
C407        C480   1.442       .  S
O408        C410   1.270       .  A
O409       Ni420   1.931       .  S
C410        O416   1.286       .  A
C410        C533   1.438       .  S
C411        C481   1.446       .  S
H412        O413   0.967       .  S
O413       Ni421   1.896       .  S
O413       Ni415   1.885       .  S
O413       Ni420   1.900       .  S
O414       Ni415   1.934       .  S
Ni415       O419   1.912       .  S
Ni415       O417   1.917       .  S
O416       Ni421   1.968       .  S
C418        O419   1.267       .  A
C418        C488   1.432       .  S
C423        C424   1.533       .  S
C423        C429   1.537       .  S
C423        C427   1.538       .  S
C423        C475   1.490       .  S
C424        H431   1.082       .  S
C424        C425   1.376       .  D
C425        C426   1.552       .  S
C426        C430   1.539       .  S
C426        C428   1.542       .  S
C426        H432   1.108       .  S
C427        H433   1.086       .  S
C427        C428   1.368       .  D
C428        C477   1.458       .  S
C429        H434   1.087       .  S
C429        C430   1.364       .  D
C430        C479   1.449       .  S
O435       Ni441   1.929       .  S
O435        C456   1.270       .  A
O436       Ni459   1.944       .  S
O436        C445   1.282       .  A
O437       Ni441   1.916       .  S
O437       Ni459   1.922       .  S
O437       Ni453   1.922       .  S
O437        H460   0.968       .  S
C438        O455   1.272       .  A
C438        O447   1.276       .  A
C438       C1068   1.421       .  S
O439       Ni458   1.913       .  S
O439        C445   1.269       .  A
O440       Ni458   1.913       .  S
O440        C442   1.267       .  A
Ni441       O444   1.925       .  S
Ni441       O446   1.908       .  S
C442        O452   1.276       .  A
C442       C1022   1.451       .  S
O443       Ni459   1.943       .  S
O443        C449   1.281       .  A
O444        C449   1.269       .  A
C445        C473   1.449       .  S
O446        C448   1.271       .  A
O447       Ni458   1.918       .  S
C448        O454   1.283       .  A
C448        C528   1.449       .  S
C449        C476   1.451       .  S
H450        O451   0.966       .  S
O451       Ni459   1.913       .  S
O451       Ni453   1.888       .  S
O451       Ni458   1.893       .  S
O452       Ni453   1.945       .  S
Ni453       O457   1.899       .  S
Ni453       O455   1.909       .  S
O454       Ni459   1.970       .  S
C456        O457   1.264       .  A
C456        C489   1.434       .  S
C461        C462   1.532       .  S
C461        C467   1.530       .  S
C461        C465   1.533       .  S
C461        C482   1.481       .  S
C462        H469   1.087       .  S
C462        C463   1.374       .  D
C463        C464   1.539       .  S
C464        C468   1.552       .  S
C464        C466   1.550       .  S
C464        H470   1.111       .  S
C465        H471   1.086       .  S
C465        C466   1.369       .  D
C466        C484   1.456       .  S
C467        H472   1.087       .  S
C467        C468   1.359       .  D
C468        C474   1.455       .  S
C475        C476   1.218       .  T
C477        C478   1.216       .  T
C478        C986   1.451   1_545  S
C479        C480   1.210       .  T
C481        C482   1.213       .  T
C483       C1028   1.215       .  T
C484       C1027   1.215       .  T
C485        C486   1.204       .  T
C486        C487   1.409       .  S
C489        C490   1.205       .  T
C490        C491   1.410       .  S
C491        C492   1.204       .  T
C493        C494   1.206       .  T
C494        C495   1.412   1_545  S
C495       C1040   1.206   1_455  T
C496       C1039   1.206   1_655  T
C497        C498   1.208       .  T
C498        C499   1.416       .  S
C499        C500   1.208   1_455  T
C501        C502   1.214       .  T
C503       C1048   1.218   1_545  T
C504       C1047   1.218       .  T
C505        C506   1.208       .  T
C507        C508   1.214       .  T
C508       C1053   1.426       .  S
C509        C510   1.214       .  T
C509       C1052   1.426       .  S
C511        C512   1.194       .  T
C512        C513   1.394       .  S
C513        C514   1.195       .  T
C515        C516   1.207       .  T
C517        C518   1.207       .  T
C518        C855   1.436       .  S
C519        C520   1.216       .  T
C521        C522   1.196       .  T
C522        C523   1.397       .  S
C523        C524   1.197       .  T
C524        C982   1.421   1_545  S
C525        C526   1.213       .  T
C526        C527   1.425       .  S
C527        C528   1.214       .  T
C529        C530   1.200       .  T
C530        C531   1.403       .  S
C531        C532   1.200       .  T
C533        C534   1.208       .  T
C534        C535   1.416       .  S
C535        C536   1.208       .  T
C537       C1082   1.205   1_545  T
C538       C1081   1.205       .  T
C538        C539   1.411       .  S
C539        C540   1.205       .  T
C542        C543   1.416   1_554  S
C543        C544   1.208       .  T
C545        C546   1.530       .  S
C545        C551   1.519   1_655  S
C545        C549   1.533       .  S
C545        C812   1.465   1_655  S
C546        H553   1.087       .  S
C546        C547   1.359       .  D
C547        C548   1.545       .  S
C547        C813   1.445       .  S
C548        C552   1.550       .  S
C548        C550   1.546       .  S
C548        H554   1.111       .  S
C549        H555   1.086       .  S
C549        C550   1.376       .  D
C550        C635   1.483       .  S
C551        H556   1.088       .  S
C551        C552   1.357   1_455  D
C552        C808   1.443   1_655  S
C557        C558   1.525       .  S
C557        C563   1.530       .  S
C557        C561   1.550       .  S
C557        C797   1.478       .  S
C558        H565   1.088       .  S
C558        C559   1.355       .  D
C559        C560   1.526       .  S
C559        C793   1.426       .  S
C560        C564   1.532       .  S
C560        C562   1.539       .  S
C560        H566   1.108       .  S
C561        H567   1.084       .  S
C561        C562   1.388       .  D
C562        C597   1.501       .  S
C563        H568   1.087       .  S
C563        C564   1.358       .  D
C564        C801   1.433       .  S
O569       Ni575   1.916       .  S
O569        C590   1.267       .  A
O570       Ni593   1.918       .  S
O570        C579   1.273       .  A
O571       Ni575   1.917       .  S
O571       Ni593   1.918       .  S
O571       Ni587   1.933       .  S
O571        H594   0.965       .  S
C572        O589   1.275       .  A
C572        O581   1.275       .  A
C572        C783   1.416       .  S
O573       Ni592   1.916       .  S
O573        C579   1.270       .  A
O574       Ni592   1.924       .  S
O574        C576   1.270       .  A
Ni575       O578   1.928       .  S
Ni575       O580   1.901       .  S
C576        O586   1.269       .  A
C576        C791   1.452       .  S
O577       Ni593   1.912       .  S
O577        C583   1.268       .  A
O578        C583   1.268       .  A
C579       C1059   1.436   1_554  S
O580        C582   1.270       .  A
O581       Ni592   1.914       .  S
C582        O588   1.286       .  A
C582        C782   1.449       .  S
H584        O585   0.967       .  S
O585       Ni593   1.895       .  S
O585       Ni587   1.880       .  S
O585       Ni592   1.902       .  S
O586       Ni587   1.929       .  S
Ni587       O591   1.897       .  S
Ni587       O589   1.906       .  S
O588       Ni593   1.976       .  S
C590        O591   1.263       .  A
C590        C804   1.426       .  S
C595        C596   1.546       .  S
C595        C601   1.529       .  S
C595        C599   1.536       .  S
C595        C775   1.488       .  S
C596        H603   1.084       .  S
C596        C597   1.384       .  D
C597        C598   1.536       .  S
C598        C602   1.540       .  S
C598        C600   1.536       .  S
C598        H604   1.109       .  S
C599        H605   1.087       .  S
C599        C600   1.364       .  D
C600        C777   1.446       .  S
C601        H606   1.087       .  S
C601        C602   1.360       .  D
C602        C788   1.443       .  S
O607       Ni613   1.925       .  S
O607        C628   1.273       .  A
O608       Ni631   1.923       .  S
O608        C617   1.270       .  A
O609       Ni613   1.900       .  S
O609       Ni631   1.891       .  S
O609       Ni625   1.900       .  S
O609        H632   0.966       .  S
C610        O627   1.270       .  A
C610        O619   1.263       .  A
C610        C778   1.437       .  S
O611       Ni630   1.904       .  S
O611        C617   1.264       .  A
O612       Ni630   1.897       .  S
O612        C614   1.269       .  A
Ni613       O616   1.925       .  S
Ni613       O618   1.925       .  S
C614        O624   1.284       .  A
C614        C772   1.439       .  S
O615       Ni631   1.923       .  S
O615        C621   1.279       .  A
O616        C621   1.277       .  A
C617        C816   1.436       .  S
O618        C620   1.271       .  A
O619       Ni630   1.916       .  S
C620        O626   1.274       .  A
C620        C776   1.455       .  S
C621        C768   1.436       .  S
H622        O623   0.967       .  S
O623       Ni631   1.943       .  S
O623       Ni625   1.927       .  S
O623       Ni630   1.920       .  S
O624       Ni625   1.967       .  S
Ni625       O629   1.929       .  S
Ni625       O627   1.925       .  S
O626       Ni631   1.940       .  S
C628        O629   1.275       .  A
C628        C774   1.449       .  S
C633        C634   1.524       .  S
C633        C639   1.534       .  S
C633        C637   1.529       .  S
C633        C789   1.471       .  S
C634        H641   1.087       .  S
C634        C635   1.363       .  D
C635        C636   1.549       .  S
C636        C640   1.549       .  S
C636        C638   1.556       .  S
C636        H642   1.111       .  S
C637        H643   1.087       .  S
C637        C638   1.367       .  D
C638        C792   1.458       .  S
C639        H644   1.087       .  S
C639        C640   1.365       .  D
C640        C773   1.455       .  S
C645        C646   1.535       .  S
C645        C651   1.516       .  S
C645        C649   1.516       .  S
C645        C786   1.449       .  S
C646        H653   1.087       .  S
C646        C647   1.363       .  D
C647        C648   1.536       .  S
C647        C764   1.439       .  S
C648        C652   1.558       .  S
C648        C650   1.559       .  S
C648        H654   1.111       .  S
C649        H655   1.087       .  S
C649        C650   1.364       .  D
C650        C735   1.484       .  S
C651        H656   1.088       .  S
C651        C652   1.358       .  D
C652        C779   1.451       .  S
C657        C658   1.524       .  S
C657        C663   1.530       .  S
C657        C661   1.540       .  S
C657        C765   1.466       .  S
C658        H665   1.088       .  S
C658        C659   1.355       .  D
C659        C660   1.541       .  S
C659        C769   1.444       .  S
C660        C664   1.535       .  S
C660        C662   1.555       .  S
C660        H666   1.106       .  S
C661        H667   1.083       .  S
C661        C662   1.381       .  D
C662        C697   1.505       .  S
C663        H668   1.087       .  S
C663        C664   1.357       .  D
C664        C757   1.438       .  S
O669       Ni675   1.909       .  S
O669        C690   1.265       .  A
O670       Ni693   1.916       .  S
O670        C679   1.272       .  A
O671       Ni675   1.920       .  S
O671       Ni693   1.923       .  S
O671       Ni687   1.951       .  S
O671        H694   0.966       .  S
C672        O689   1.277       .  A
C672        O681   1.278       .  A
C672        C809   1.435       .  S
O673       Ni692   1.930       .  S
O673        C679   1.274       .  A
O674       Ni692   1.921       .  S
O674        C676   1.270       .  A
Ni675       O678   1.926       .  S
Ni675       O680   1.893       .  S
C676        O686   1.271       .  A
C676        C755   1.450       .  S
O677       Ni693   1.926       .  S
O677        C683   1.267       .  A
O678        C683   1.265       .  A
C679        C752   1.442       .  S
O680        C682   1.270       .  A
O681       Ni692   1.931       .  S
C682        O688   1.286       .  A
C682        C805   1.438       .  S
C683        C753   1.446       .  S
H684        O685   0.967       .  S
O685       Ni693   1.896       .  S
O685       Ni687   1.885       .  S
O685       Ni692   1.900       .  S
O686       Ni687   1.934       .  S
Ni687       O691   1.912       .  S
Ni687       O689   1.917       .  S
O688       Ni693   1.968       .  S
C690        O691   1.267       .  A
C690        C760   1.432   1_554  S
C695        C696   1.533       .  S
C695        C701   1.537       .  S
C695        C699   1.538       .  S
C695        C747   1.490       .  S
C696        H703   1.082       .  S
C696        C697   1.376       .  D
C697        C698   1.552       .  S
C698        C702   1.539       .  S
C698        C700   1.542       .  S
C698        H704   1.108       .  S
C699        H705   1.086       .  S
C699        C700   1.368       .  D
C700        C749   1.458       .  S
C701        H706   1.087       .  S
C701        C702   1.364       .  D
C702        C751   1.449       .  S
O707       Ni713   1.929       .  S
O707        C728   1.270       .  A
O708       Ni731   1.944       .  S
O708        C717   1.282       .  A
O709       Ni713   1.916       .  S
O709       Ni731   1.922       .  S
O709       Ni725   1.922       .  S
O709        H732   0.968       .  S
C710        O727   1.272       .  A
C710        O719   1.276       .  A
O711       Ni730   1.913       .  S
O711        C717   1.269       .  A
O712       Ni730   1.913       .  S
O712        C714   1.267       .  A
Ni713       O716   1.925       .  S
Ni713       O718   1.908       .  S
C714        O724   1.276       .  A
O715       Ni731   1.943       .  S
O715        C721   1.281       .  A
O716        C721   1.269       .  A
C717        C745   1.449       .  S
O718        C720   1.271       .  A
O719       Ni730   1.918       .  S
C720        O726   1.283       .  A
C720        C800   1.449       .  S
C721        C748   1.451       .  S
H722        O723   0.966       .  S
O723       Ni731   1.913       .  S
O723       Ni725   1.888       .  S
O723       Ni730   1.893       .  S
O724       Ni725   1.945       .  S
Ni725       O729   1.899       .  S
Ni725       O727   1.909       .  S
O726       Ni731   1.970       .  S
C728        O729   1.264       .  A
C728        C761   1.434       .  S
C733        C734   1.532       .  S
C733        C739   1.530       .  S
C733        C737   1.533       .  S
C733        C754   1.481       .  S
C734        H741   1.087       .  S
C734        C735   1.374       .  D
C735        C736   1.539       .  S
C736        C740   1.552       .  S
C736        C738   1.550       .  S
C736        H742   1.111       .  S
C737        H743   1.086       .  S
C737        C738   1.369       .  D
C738        C756   1.456       .  S
C739        H744   1.087       .  S
C739        C740   1.359       .  D
C740        C746   1.455       .  S
C745       C1018   1.214       .  T
C746       C1017   1.214   1_554  T
C747        C748   1.218       .  T
C749        C750   1.216       .  T
C751        C752   1.210       .  T
C753        C754   1.213       .  T
C757        C758   1.204       .  T
C758        C759   1.409       .  S
C759       C1032   1.204       .  T
C760       C1031   1.204       .  T
C761        C762   1.205       .  T
C762        C763   1.410       .  S
C763        C764   1.204       .  T
C765        C766   1.206       .  T
C766        C767   1.412       .  S
C769        C770   1.208       .  T
C770        C771   1.416       .  S
C771        C772   1.208   1_455  T
C773        C774   1.214       .  T
C777        C778   1.208       .  T
C779        C780   1.214   1_565  T
C781        C782   1.214       .  T
C783        C784   1.194       .  T
C784        C785   1.394       .  S
C785        C786   1.195       .  T
C787        C851   1.436       .  S
C787        C788   1.207       .  T
C789        C790   1.207       .  T
C791        C792   1.216       .  T
C793        C794   1.196       .  T
C794        C795   1.397       .  S
C795        C796   1.197       .  T
C797        C798   1.213       .  T
C798        C799   1.425       .  S
C799        C800   1.214       .  T
C801        C802   1.200       .  T
C802        C803   1.403       .  S
C803        C804   1.200       .  T
C805        C806   1.208       .  T
C806        C807   1.416       .  S
C807        C808   1.208       .  T
C810        C811   1.411       .  S
C811        C812   1.205       .  T
C813       C1086   1.208       .  T
C814       C1085   1.208       .  T
C814        C815   1.416       .  S
C815        C816   1.208       .  T
C817        C818   1.530       .  S
C817        C823   1.519   1_655  S
C817        C821   1.533       .  S
C817       C1084   1.465   1_655  S
C818        H825   1.087       .  S
C818        C819   1.359       .  D
C819        C820   1.545       .  S
C819       C1085   1.445       .  S
C820        C824   1.550       .  S
C820        C822   1.546       .  S
C820        H826   1.111       .  S
C821        H827   1.086       .  S
C821        C822   1.376       .  D
C822        C907   1.483       .  S
C823        H828   1.088       .  S
C823        C824   1.357   1_455  D
C824       C1080   1.443   1_655  S
C829        C830   1.525       .  S
C829        C835   1.530       .  S
C829        C833   1.550       .  S
C829       C1069   1.478       .  S
C830        H837   1.088       .  S
C830        C831   1.355       .  D
C831        C832   1.526       .  S
C831       C1065   1.426       .  S
C832        C836   1.532       .  S
C832        C834   1.539       .  S
C832        H838   1.108       .  S
C833        H839   1.084       .  S
C833        C834   1.388       .  D
C834        C869   1.501       .  S
C835        H840   1.087       .  S
C835        C836   1.358       .  D
C836       C1073   1.433       .  S
O841       Ni847   1.916       .  S
O841        C862   1.267       .  A
O842       Ni865   1.918       .  S
O842        C851   1.273       .  A
O843       Ni847   1.917       .  S
O843       Ni865   1.918       .  S
O843       Ni859   1.933       .  S
O843        H866   0.965       .  S
C844        O861   1.275       .  A
C844        O853   1.275       .  A
C844       C1055   1.416       .  S
O845       Ni864   1.916       .  S
O845        C851   1.270       .  A
O846       Ni864   1.924       .  S
O846        C848   1.270       .  A
Ni847       O850   1.928       .  S
Ni847       O852   1.901       .  S
C848        O858   1.269       .  A
C848       C1063   1.452       .  S
O849       Ni865   1.912       .  S
O849        C855   1.268       .  A
O850        C855   1.268       .  A
O852        C854   1.270       .  A
O853       Ni864   1.914       .  S
C854        O860   1.286       .  A
C854       C1054   1.449       .  S
H856        O857   0.967       .  S
O857       Ni865   1.895       .  S
O857       Ni859   1.880       .  S
O857       Ni864   1.902       .  S
O858       Ni859   1.929       .  S
Ni859       O863   1.897       .  S
Ni859       O861   1.906       .  S
O860       Ni865   1.976       .  S
C862        O863   1.263       .  A
C862       C1076   1.426       .  S
C867        C868   1.546       .  S
C867        C873   1.529       .  S
C867        C871   1.536       .  S
C867       C1047   1.488       .  S
C868        H875   1.084       .  S
C868        C869   1.384       .  D
C869        C870   1.536       .  S
C870        C874   1.540       .  S
C870        C872   1.536       .  S
C870        H876   1.109       .  S
C871        H877   1.087       .  S
C871        C872   1.364       .  D
C872       C1049   1.446       .  S
C873        H878   1.087       .  S
C873        C874   1.360       .  D
C874       C1060   1.443       .  S
O879       Ni885   1.925       .  S
O879        C900   1.273       .  A
O880       Ni903   1.923       .  S
O880        C889   1.270       .  A
O881       Ni885   1.900       .  S
O881       Ni903   1.891       .  S
O881       Ni897   1.900       .  S
O881        H904   0.966       .  S
C882        O899   1.270       .  A
C882        O891   1.263       .  A
C882       C1050   1.437       .  S
O883       Ni902   1.904       .  S
O883        C889   1.264       .  A
O884       Ni902   1.897       .  S
O884        C886   1.269       .  A
Ni885       O888   1.925       .  S
Ni885       O890   1.925       .  S
C886        O896   1.284       .  A
C886       C1044   1.439       .  S
O887       Ni903   1.923       .  S
O887        C893   1.279       .  A
O888        C893   1.277       .  A
C889       C1088   1.436       .  S
O890        C892   1.271       .  A
O891       Ni902   1.916       .  S
C892        O898   1.274       .  A
C892       C1048   1.455       .  S
C893       C1040   1.436       .  S
H894        O895   0.967       .  S
O895       Ni903   1.943       .  S
O895       Ni897   1.927       .  S
O895       Ni902   1.920       .  S
O896       Ni897   1.967       .  S
Ni897       O901   1.929       .  S
Ni897       O899   1.925       .  S
O898       Ni903   1.940       .  S
C900        O901   1.275       .  A
C900       C1046   1.449       .  S
C905        C906   1.524       .  S
C905        C911   1.534       .  S
C905        C909   1.529       .  S
C905       C1061   1.471       .  S
C906        H913   1.087       .  S
C906        C907   1.363       .  D
C907        C908   1.549       .  S
C908        C912   1.549       .  S
C908        C910   1.556       .  S
C908        H914   1.111       .  S
C909        H915   1.087       .  S
C909        C910   1.367       .  D
C910       C1064   1.458       .  S
C911        H916   1.087       .  S
C911        C912   1.365       .  D
C912       C1045   1.455       .  S
C917        C918   1.535       .  S
C917        C923   1.516       .  S
C917        C921   1.516       .  S
C917       C1058   1.449       .  S
C918        H925   1.087       .  S
C918        C919   1.363       .  D
C919        C920   1.536       .  S
C919       C1036   1.439       .  S
C920        C924   1.558       .  S
C920        C922   1.559       .  S
C920        H926   1.111       .  S
C921        H927   1.087       .  S
C921        C922   1.364       .  D
C922       C1007   1.484       .  S
C923        H928   1.088       .  S
C923        C924   1.358       .  D
C924       C1051   1.451       .  S
C929        C930   1.524       .  S
C929        C935   1.530       .  S
C929        C933   1.540       .  S
C929       C1037   1.466       .  S
C930        H937   1.088       .  S
C930        C931   1.355       .  D
C931        C932   1.541       .  S
C931       C1041   1.444       .  S
C932        C936   1.535       .  S
C932        C934   1.555       .  S
C932        H938   1.106       .  S
C933        H939   1.083       .  S
C933        C934   1.381       .  D
C934        C969   1.505       .  S
C935        H940   1.087       .  S
C935        C936   1.357       .  D
C936       C1029   1.438       .  S
O941       Ni947   1.909       .  S
O941        C962   1.265       .  A
O942       Ni965   1.916       .  S
O942        C951   1.272       .  A
O943       Ni947   1.920       .  S
O943       Ni965   1.923       .  S
O943       Ni959   1.951       .  S
O943        H966   0.966       .  S
C944        O961   1.277       .  A
C944        O953   1.278       .  A
C944       C1081   1.435       .  S
O945       Ni964   1.930       .  S
O945        C951   1.274       .  A
O946       Ni964   1.921       .  S
O946        C948   1.270       .  A
Ni947       O950   1.926       .  S
Ni947       O952   1.893       .  S
C948        O958   1.271       .  A
C948       C1027   1.450       .  S
O949       Ni965   1.926       .  S
O949        C955   1.267       .  A
O950        C955   1.265       .  A
C951       C1024   1.442       .  S
O952        C954   1.270       .  A
O953       Ni964   1.931       .  S
C954        O960   1.286       .  A
C954       C1077   1.438       .  S
C955       C1025   1.446       .  S
H956        O957   0.967       .  S
O957       Ni965   1.896       .  S
O957       Ni959   1.885       .  S
O957       Ni964   1.900       .  S
O958       Ni959   1.934       .  S
Ni959       O963   1.912       .  S
Ni959       O961   1.917       .  S
O960       Ni965   1.968       .  S
C962        O963   1.267       .  A
C962       C1032   1.432       .  S
C967        C968   1.533       .  S
C967        C973   1.537       .  S
C967        C971   1.538       .  S
C967       C1019   1.490       .  S
C968        H975   1.082       .  S
C968        C969   1.376       .  D
C969        C970   1.552       .  S
C970        C974   1.539       .  S
C970        C972   1.542       .  S
C970        H976   1.108       .  S
C971        H977   1.086       .  S
C971        C972   1.368       .  D
C972       C1021   1.458       .  S
C973        H978   1.087       .  S
C973        C974   1.364       .  D
C974       C1023   1.449       .  S
O979       Ni985   1.929       .  S
O979       C1000   1.270       .  A
O980      Ni1003   1.944       .  S
O980        C989   1.282       .  A
O981       Ni985   1.916       .  S
O981      Ni1003   1.922       .  S
O981       Ni997   1.922       .  S
O981       H1004   0.968       .  S
C982        O999   1.272       .  A
C982        O991   1.276       .  A
O983      Ni1002   1.913       .  S
O983        C989   1.269       .  A
O984      Ni1002   1.913       .  S
O984        C986   1.267       .  A
Ni985       O988   1.925       .  S
Ni985       O990   1.908       .  S
C986        O996   1.276       .  A
O987      Ni1003   1.943       .  S
O987        C993   1.281       .  A
O988        C993   1.269       .  A
C989       C1017   1.449       .  S
O990        C992   1.271       .  A
O991      Ni1002   1.918       .  S
C992        O998   1.283       .  A
C992       C1072   1.449       .  S
C993       C1020   1.451       .  S
H994        O995   0.966       .  S
O995      Ni1003   1.913       .  S
O995       Ni997   1.888       .  S
O995      Ni1002   1.893       .  S
O996       Ni997   1.945       .  S
Ni997      O1001   1.899       .  S
Ni997       O999   1.909       .  S
O998      Ni1003   1.970       .  S
C1000      O1001   1.264       .  A
C1000      C1033   1.434       .  S
C1005      C1006   1.532       .  S
C1005      C1011   1.530       .  S
C1005      C1009   1.533       .  S
C1005      C1026   1.481       .  S
C1006      H1013   1.087       .  S
C1006      C1007   1.374       .  D
C1007      C1008   1.539       .  S
C1008      C1012   1.552       .  S
C1008      C1010   1.550       .  S
C1008      H1014   1.111       .  S
C1009      H1015   1.086       .  S
C1009      C1010   1.369       .  D
C1010      C1028   1.456       .  S
C1011      H1016   1.087       .  S
C1011      C1012   1.359       .  D
C1012      C1018   1.455       .  S
C1019      C1020   1.218       .  T
C1021      C1022   1.216       .  T
C1023      C1024   1.210       .  T
C1025      C1026   1.213       .  T
C1029      C1030   1.204       .  T
C1030      C1031   1.409       .  S
C1033      C1034   1.205       .  T
C1034      C1035   1.410       .  S
C1035      C1036   1.204       .  T
C1037      C1038   1.206       .  T
C1038      C1039   1.412       .  S
C1041      C1042   1.208       .  T
C1042      C1043   1.416       .  S
C1043      C1044   1.208   1_455  T
C1045      C1046   1.214       .  T
C1049      C1050   1.208       .  T
C1051      C1052   1.214   1_565  T
C1053      C1054   1.214       .  T
C1055      C1056   1.194       .  T
C1056      C1057   1.394       .  S
C1057      C1058   1.195       .  T
C1059      C1060   1.207       .  T
C1061      C1062   1.207       .  T
C1063      C1064   1.216       .  T
C1065      C1066   1.196       .  T
C1066      C1067   1.397       .  S
C1067      C1068   1.197       .  T
C1069      C1070   1.213       .  T
C1070      C1071   1.425       .  S
C1071      C1072   1.214       .  T
C1073      C1074   1.200       .  T
C1074      C1075   1.403       .  S
C1075      C1076   1.200       .  T
C1077      C1078   1.208       .  T
C1078      C1079   1.416       .  S
C1079      C1080   1.208       .  T
C1082      C1083   1.411       .  S
C1083      C1084   1.205       .  T
C1086      C1087   1.416   1_554  S
C1087      C1088   1.208       .  T
