geometry optimzed in LAMMPS
_audit_creation_date              2020-11-30 
_audit_creation_method            'lammps2cif' 
_symmetry_space_group_name_H-M    'P1' 
_symmetry_Int_Tables_number       1 
_symmetry_cell_setting            triclinic 
loop_ 
_symmetry_equiv_pos_as_xyz 
  x,y,z 
_cell_length_a                    37.40387111 
_cell_length_b                    37.39525874905024 
_cell_length_c                    24.729552729147727 
_cell_angle_alpha                 90.0021378966199 
_cell_angle_beta                  89.99954857615894 
_cell_angle_gamma                 120.07238462213033 
loop_ 
_atom_site_label 
_atom_site_type_symbol 
_atom_site_fract_x 
_atom_site_fract_y 
_atom_site_fract_z 
_atom_site_charge 
C1          C  0.66874525  0.22964177  0.29852425     0.01200
C2          C  0.76458475  0.32543570  0.21378776     0.01200
In3        In  0.72571195  0.08876133  0.26159659     1.36900
C4          C  0.80316350  0.15140141  0.25773147     0.81300
O5          O  0.74014268  0.06547734  0.18699663    -0.57200
O6          O  0.68807452  0.07455667  0.18694578    -0.48100
C7          C  0.69341441  0.01408051  0.30492079     0.73900
O8          O  0.73127649  0.03511032  0.29366586    -0.43000
C9          C  0.69325416  0.13524304  0.28570388     0.78600
O10         O  0.78602793  0.13415606  0.30185136    -0.54800
O11         O  0.68640611  0.11602925  0.24173698    -0.44900
O12         O  0.78207024  0.13463825  0.21626173    -0.51200
C13         C  0.71188418  0.06644018  0.16033842     0.88800
O14         O  0.67448721  0.03392724  0.30372071    -0.53100
O15         O  0.71463249  0.12869734  0.31960913    -0.56400
In16       In  0.90505447  0.26796018  0.25074369     1.36900
C17         C  0.92738578  0.28176383  0.35200244     0.81300
O18         O  0.85909024  0.21164352  0.29607799    -0.57200
O19         O  0.85960181  0.20765182  0.21049412    -0.48100
C20         C  0.85875117  0.30061971  0.22664722     0.73900
O21         O  0.87797337  0.30743798  0.27059907    -0.43000
C22         C  0.97970077  0.30012919  0.20739970     0.78600
O23         O  0.91932982  0.30562293  0.32539103    -0.54800
O24         O  0.95864049  0.26227864  0.21872413    -0.44900
O25         O  0.92828001  0.25346536  0.32534864    -0.51200
C26         C  0.84232729  0.19054156  0.25461166     0.88800
O27         O  0.86518741  0.27915026  0.19275645    -0.53100
O28         O  0.95989822  0.31910604  0.20853973    -0.56400
In29       In  0.37633633  0.08842352  0.25081866     1.36900
C30         C  0.36789023  0.06606935  0.35204525     0.81300
O31         O  0.36573063  0.13414215  0.29621046    -0.57200
O32         O  0.36105164  0.13352470  0.21064268    -0.48100
C33         C  0.45529656  0.13524194  0.22664379     0.73900
O34         O  0.44300003  0.11602745  0.27062450    -0.43000
C35         C  0.33432799  0.01371520  0.20744796     0.78600
O36         O  0.39991497  0.07444304  0.32546188    -0.54800
O37         O  0.31724043  0.03447150  0.21874161    -0.44900
O38         O  0.33855929  0.06486541  0.32537219    -0.51200
C39         C  0.36121629  0.15078067  0.25477863     0.88800
O40         O  0.42729625  0.12855704  0.19277389    -0.53100
O41         O  0.37312845  0.03384582  0.20863384    -0.56400
In42       In  0.37582390  0.26722471  0.26170884     1.36900
C43         C  0.36110251  0.18984057  0.25788799     0.81300
O44         O  0.33804729  0.25268588  0.18711179    -0.57200
O45         O  0.39924329  0.30486839  0.18705743    -0.48100
C46         C  0.33347685  0.29946315  0.30509141     0.73900
O47         O  0.31654948  0.26161361  0.29367013    -0.43000
C48         C  0.45489888  0.30003046  0.28564540     0.78600
O49         O  0.36102674  0.20698026  0.30202019    -0.54800
O50         O  0.44242507  0.30674034  0.24168901    -0.44900
O51         O  0.36531774  0.21087079  0.21642196    -0.51200
C52         C  0.36728938  0.28099172  0.16045121     0.88800
O53         O  0.37228258  0.31836072  0.30403016    -0.53100
O54         O  0.42700696  0.27856361  0.31960201    -0.56400
C55         C  0.57432281  0.22977622  0.21377121     0.01200
C56         C  0.57413460  0.32542860  0.29850407     0.01200
C57         C  0.66875323  0.42000258  0.21379748     0.01200
In58       In  0.72677290  0.61832588  0.25063357     1.36900
C59         C  0.80417784  0.63317146  0.25451578     0.81300
O60         O  0.74122206  0.65612085  0.32521351    -0.57200
O61         O  0.68913435  0.59485940  0.32527059    -0.48100
C62         C  0.69439744  0.66053335  0.20721560     0.73900
O63         O  0.73223832  0.67754766  0.21866416    -0.43000
C64         C  0.69410442  0.53925600  0.22666849     0.78600
O65         O  0.78706902  0.63328497  0.21037890    -0.54800
O66         O  0.68733702  0.55169751  0.27061494    -0.44900
O67         O  0.78310336  0.62886208  0.29596630    -0.51200
C68         C  0.71294904  0.62684013  0.35187289     0.88800
O69         O  0.67558723  0.62171905  0.20826373    -0.53100
O70         O  0.71556494  0.56717488  0.19273611    -0.56400
In71       In  0.90560462  0.61799421  0.26158134     1.36900
C72         C  0.92796605  0.62644257  0.16035813     0.81300
O73         O  0.85993706  0.62866944  0.21620310    -0.57200
O74         O  0.86046547  0.63320799  0.30178195    -0.48100
C75         C  0.85881578  0.53899059  0.28565987     0.73900
O76         O  0.87802427  0.55133038  0.24168272    -0.43000
C77         C  0.98028326  0.65998852  0.30499807     0.78600
O78         O  0.91959846  0.59441137  0.18694963    -0.54800
O79         O  0.95956918  0.67710001  0.29363630    -0.44900
O80         O  0.92916466  0.65577740  0.18702318    -0.51200
C81         C  0.84325031  0.63310158  0.25764018     0.88800
O82         O  0.86547663  0.56697128  0.31956554    -0.53100
O83         O  0.96012361  0.62117344  0.30385606    -0.56400
C84         C  0.76442046  0.41987379  0.29852427     0.01200
C85         C  0.66874768  0.22965983  0.46377514     0.01200
C86         C  0.76459447  0.32544607  0.04851850     0.01200
In87       In  0.72575356  0.08878362  0.00068460     1.36900
C88         C  0.71189458  0.06644193  0.10193164     0.81300
O89         O  0.67456120  0.03396578  0.95848570    -0.57200
O90         O  0.73134499  0.03514911  0.96860784    -0.48100
C91         C  0.69327112  0.13527412  0.47657721     0.73900
O92         O  0.68639583  0.11600029  0.02050557    -0.43000
C93         C  0.80319764  0.15142789  0.00463625     0.78600
O94         O  0.68808870  0.07456001  0.07531187    -0.54800
O95         O  0.78606343  0.13417864  0.46048555    -0.44900
O96         O  0.74015871  0.06548417  0.07528832    -0.51200
C97         C  0.69348834  0.01412202  0.95730058     0.88800
O98         O  0.71469749  0.12877365  0.44269819    -0.53100
O99         O  0.78207737  0.13466771  0.04607083    -0.56400
In100      In  0.90506343  0.26797604  0.51166801     1.36900
C101        C  0.92739247  0.28177355  0.41041008     0.81300
O102        O  0.95990167  0.31910834  0.55390444    -0.57200
O103        O  0.95865751  0.26229024  0.04371249    -0.48100
C104        C  0.85877280  0.30064152  0.03572114     0.73900
O105        O  0.87800777  0.30747084  0.49178083    -0.43000
C106        C  0.84236059  0.19056644  0.00776497     0.78600
O107        O  0.91934654  0.30563625  0.43702090    -0.54800
O108        O  0.85960176  0.20768529  0.05190985    -0.44900
O109        O  0.92828800  0.25347334  0.43706584    -0.51200
C110        C  0.97969635  0.30012594  0.55505303     0.88800
O111        O  0.86518224  0.27915630  0.06961371    -0.53100
O112        O  0.85913355  0.21165006  0.46632025    -0.56400
In113      In  0.37584991  0.26722202  0.00079128     1.36900
C114        C  0.36112051  0.18983696  0.00466587     0.81300
O115        O  0.42696967  0.27850070  0.44284559    -0.57200
O116        O  0.44246599  0.30677224  0.02071138    -0.48100
C117        C  0.33350969  0.29946925  0.95741796     0.73900
O118        O  0.31657606  0.26161642  0.96883731    -0.43000
C119        C  0.36729621  0.28099007  0.10204378     0.78600
O120        O  0.36094443  0.20692537  0.96053328    -0.54800
O121        O  0.39926442  0.30485942  0.07545290    -0.44900
O122        O  0.36545656  0.21092586  0.04611371    -0.51200
C123        C  0.45489035  0.30001928  0.47674375     0.88800
O124        O  0.37231303  0.31836076  0.95847963    -0.53100
O125        O  0.33805822  0.25269426  0.07537092    -0.56400
In126      In  0.37629608  0.08840091  0.51168148     1.36900
C127        C  0.36787579  0.06606029  0.41044937     0.81300
O128        O  0.37307548  0.03382612  0.55389160    -0.57200
O129        O  0.31723604  0.03445679  0.04378029    -0.48100
C130        C  0.45530684  0.13523600  0.03574694     0.73900
O131        O  0.44294335  0.11601946  0.49176557    -0.43000
C132        C  0.36121024  0.15076517  0.00777499     0.78600
O133        O  0.39988466  0.07440716  0.43705603    -0.54800
O134        O  0.36114948  0.13356670  0.05191520    -0.44900
O135        O  0.33854371  0.06486892  0.43710208    -0.51200
C136        C  0.33426635  0.01370004  0.55506524     0.88800
O137        O  0.42733654  0.12854430  0.06967077    -0.53100
O138        O  0.36556752  0.13405267  0.46632370    -0.56400
C139        C  0.57433736  0.22977456  0.04852679     0.01200
C140        C  0.57412260  0.32541936  0.46380329     0.01200
C141        C  0.66876051  0.42000959  0.04849958     0.01200
In142      In  0.72671646  0.61831544  0.51153382     1.36900
C143        C  0.80421004  0.63317371  0.00768292     0.81300
O144        O  0.71556022  0.56719532  0.06948474    -0.57200
O145        O  0.68730169  0.55167442  0.49158364    -0.48100
C146        C  0.69431959  0.66052664  0.55489151     0.73900
O147        O  0.73225403  0.67755084  0.04347640    -0.43000
C148        C  0.71294153  0.62684218  0.41027966     0.78600
O149        O  0.78710374  0.63332402  0.05181020    -0.54800
O150        O  0.68911264  0.59484604  0.43686494    -0.44900
O151        O  0.78305298  0.62882923  0.46623676    -0.51200
C152        C  0.69412473  0.53926293  0.03555233     0.88800
O153        O  0.67550341  0.62171080  0.55382343    -0.53100
O154        O  0.74119028  0.65611351  0.43695945    -0.56400
In155      In  0.90564066  0.61799710  0.00071759     1.36900
C156        C  0.92797182  0.62643745  0.10195341     0.81300
O157        O  0.96017499  0.62116865  0.95849833    -0.57200
O158        O  0.95961928  0.67709825  0.96868166    -0.48100
C159        C  0.85878680  0.53901218  0.47665169     0.73900
O160        O  0.87802161  0.55133518  0.02064622    -0.43000
C161        C  0.84328789  0.63311061  0.00459580     0.78600
O162        O  0.91961393  0.59441444  0.07536207    -0.54800
O163        O  0.86043137  0.63321163  0.46047549    -0.44900
O164        O  0.92917593  0.65577910  0.07528480    -0.51200
C165        C  0.98033669  0.65998120  0.95735591     0.88800
O166        O  0.86548464  0.56698562  0.44271810    -0.53100
O167        O  0.85997811  0.62871187  0.04604708    -0.56400
C168        C  0.76441004  0.41988629  0.46378431     0.01200
In169      In  0.09961954  0.36455976  0.51166712     1.36900
C170        C  0.07727053  0.35612006  0.41043915     0.81300
O171        O  0.14527925  0.35385310  0.46631389    -0.57200
O172        O  0.14477726  0.34936920  0.05188078    -0.48100
C173        C  0.14643724  0.44358097  0.03571876     0.73900
O174        O  0.12721228  0.43121825  0.49174094    -0.43000
C175        C  0.02493422  0.32257938  0.55505815     0.78600
O176        O  0.08563670  0.38814786  0.43703649    -0.54800
O177        O  0.04566874  0.30547604  0.04370285    -0.44900
O178        O  0.07606716  0.32678043  0.43710019    -0.51200
C179        C  0.16199195  0.34945962  0.00774650     0.88800
O180        O  0.13975239  0.41560698  0.06964487    -0.53100
O181        O  0.04510164  0.36138918  0.55393109    -0.56400
In182      In  0.27847167  0.36423275  0.00078916     1.36900
C183        C  0.20106601  0.34939066  0.00464025     0.81300
O184        O  0.26399805  0.32643246  0.07536247    -0.57200
O185        O  0.31607847  0.38769846  0.07545468    -0.48100
C186        C  0.31085878  0.32201608  0.95741786     0.73900
O187        O  0.27301899  0.30500950  0.96883236    -0.43000
C188        C  0.31112648  0.44330379  0.47678644     0.78600
O189        O  0.21817564  0.34925553  0.96051237    -0.54800
O190        O  0.31790552  0.43086985  0.02074548    -0.44900
O191        O  0.22214098  0.35372245  0.04609718    -0.51200
C192        C  0.29225278  0.35570636  0.10204071     0.88800
O193        O  0.32967723  0.36083692  0.95847759    -0.53100
O194        O  0.28968039  0.41537087  0.44285950    -0.56400
C195        C  0.24083882  0.56269462  0.04857487     0.01200
C196        C  0.33646165  0.56254949  0.46384353     0.01200
In197      In  0.10020887  0.71460775  0.00075786     1.36900
C198        C  0.07786580  0.70081325  0.10201067     0.81300
O199        O  0.14615694  0.77092337  0.04610492    -0.57200
O200        O  0.14568176  0.77491138  0.96051827    -0.48100
C201        C  0.14644633  0.68193322  0.47666898     0.73900
O202        O  0.12727704  0.67512241  0.02063125    -0.43000
C203        C  0.02557480  0.68243668  0.95737045     0.78600
O204        O  0.08592216  0.67695148  0.07540780    -0.54800
O205        O  0.04656897  0.72030104  0.46871234    -0.44900
O206        O  0.07697219  0.72910960  0.07534861    -0.51200
C207        C  0.16293951  0.79202061  0.00467159     0.88800
O208        O  0.14003969  0.70342735  0.44278732    -0.53100
O209        O  0.04537484  0.66346385  0.95853310    -0.56400
In210      In  0.27948307  0.89378596  0.51169842     1.36900
C211        C  0.29335179  0.91612782  0.41045278     0.81300
O212        O  0.22314645  0.84791162  0.46632442    -0.57200
O213        O  0.21922581  0.84839648  0.05193281    -0.48100
C214        C  0.31201346  0.84731550  0.03579590     0.73900
O215        O  0.31881215  0.86654264  0.49185568    -0.43000
C216        C  0.31176896  0.96845129  0.55506898     0.78600
O217        O  0.31715155  0.90800717  0.43707639    -0.54800
O218        O  0.27397120  0.94742960  0.04380323    -0.44900
O219        O  0.26508432  0.91708792  0.43709150    -0.51200
C220        C  0.20210603  0.83115694  0.00777698     0.88800
O221        O  0.29059890  0.85382293  0.06968831    -0.53100
O222        O  0.33068476  0.94859881  0.55388958    -0.56400
C223        C  0.33652671  0.75292277  0.04857539     0.01200
C224        C  0.24061736  0.65711821  0.46383851     0.01200
C225        C  0.43089194  0.75279858  0.46381973     0.01200
In226      In  0.62897534  0.89416354  0.00064859     1.36900
C227        C  0.63738472  0.91649751  0.10188261     0.81300
O228        O  0.63971378  0.84851476  0.04599452    -0.57200
O229        O  0.64413228  0.84899177  0.96040494    -0.48100
C230        C  0.54992098  0.84734802  0.47659864     0.73900
O231        O  0.56232889  0.86652960  0.02057725    -0.43000
C232        C  0.67099676  0.96887280  0.95728584     0.78600
O233        O  0.60538279  0.90815562  0.07527023    -0.54800
O234        O  0.68807789  0.94811899  0.96859346    -0.44900
O235        O  0.66672102  0.91768600  0.07523524    -0.51200
C236        C  0.64408237  0.83179620  0.00454114     0.88800
O237        O  0.57788502  0.85405168  0.44265876    -0.53100
O238        O  0.63219077  0.94873805  0.95844562    -0.56400
In239      In  0.62935066  0.71533929  0.51150590     1.36900
C240        C  0.64415776  0.79271694  0.00764770     0.81300
O241        O  0.66715092  0.72985248  0.43693688    -0.57200
O242        O  0.60593659  0.67770039  0.43684638    -0.48100
C243        C  0.67168057  0.68308467  0.55488395     0.73900
O244        O  0.68868967  0.72093396  0.04346513    -0.43000
C245        C  0.55035941  0.68253685  0.03559136     0.78600
O246        O  0.64434096  0.77563046  0.05177786    -0.54800
O247        O  0.56273243  0.67579446  0.49160530    -0.44900
O248        O  0.63971336  0.77162183  0.46617424    -0.51200
C249        C  0.63791485  0.70156229  0.41026146     0.88800
O250        O  0.63287268  0.66419213  0.55381499    -0.53100
O251        O  0.57828620  0.70406190  0.06947975    -0.56400
C252        C  0.43112705  0.65713802  0.04854021     0.01200
In253      In  0.62940514  0.71532055  0.25059373     1.36900
C254        C  0.64413280  0.79270641  0.25441439     0.81300
O255        O  0.57821438  0.70398943  0.19271894    -0.57200
O256        O  0.56280719  0.67579737  0.27062333    -0.48100
C257        C  0.67175498  0.68308750  0.20720737     0.73900
O258        O  0.68867862  0.72093100  0.21863570    -0.43000
C259        C  0.63792664  0.70155179  0.35185441     0.78600
O260        O  0.64418705  0.77555951  0.21028019    -0.54800
O261        O  0.60597758  0.67767766  0.32524363    -0.44900
O262        O  0.63993644  0.77168268  0.29588165    -0.51200
C263        C  0.55032790  0.68251531  0.22667740     0.88800
O264        O  0.63294476  0.66418774  0.20825898    -0.53100
O265        O  0.66717595  0.72985626  0.32519591    -0.56400
In266      In  0.62890793  0.89412771  0.26151119     1.36900
C267        C  0.63737039  0.91648905  0.16028677     0.81300
O268        O  0.63211116  0.94870031  0.30370481    -0.57200
O269        O  0.68800083  0.94807704  0.29360276    -0.48100
C270        C  0.54994894  0.84731044  0.28569029     0.73900
O271        O  0.56224295  0.86653668  0.24171769    -0.43000
C272        C  0.64402143  0.83176705  0.25753156     0.78600
O273        O  0.60533830  0.90811346  0.18686369    -0.54800
O274        O  0.64420414  0.84902900  0.30167025    -0.44900
O275        O  0.66669444  0.91769259  0.18696593    -0.51200
C276        C  0.67091424  0.96883110  0.30490042     0.88800
O277        O  0.57795033  0.85398273  0.31955146    -0.53100
O278        O  0.63949118  0.84840010  0.21610546    -0.56400
C279        C  0.43109260  0.65712243  0.21383966     0.01200
C280        C  0.43091807  0.75278261  0.29857445     0.01200
C281        C  0.24064472  0.65713387  0.29856460     0.01200
C282        C  0.33649550  0.75291977  0.21382655     0.01200
In283      In  0.27953062  0.89379354  0.25079401     1.36900
C284        C  0.29336118  0.91612971  0.35204636     0.81300
O285        O  0.33075269  0.94861892  0.20865288    -0.57200
O286        O  0.27396582  0.94744037  0.21871289    -0.48100
C287        C  0.31198399  0.84731331  0.22665866     0.73900
O288        O  0.31885679  0.86654255  0.27061712    -0.43000
C289        C  0.20207672  0.83116151  0.25470934     0.78600
O290        O  0.31716902  0.90800067  0.32544448    -0.54800
O291        O  0.21918996  0.84842094  0.21057165    -0.44900
O292        O  0.26511305  0.91709940  0.32538381    -0.51200
C293        C  0.31182362  0.96846628  0.20744734     0.88800
O294        O  0.29058087  0.85384205  0.19277477    -0.53100
O295        O  0.22319697  0.84790046  0.29615350    -0.56400
In296      In  0.10016996  0.71461609  0.26168239     1.36900
C297        C  0.07785805  0.70081575  0.16041807     0.81300
O298        O  0.04532470  0.66347617  0.30389276    -0.57200
O299        O  0.04658314  0.72030224  0.29369451    -0.48100
C300        C  0.14647743  0.68195303  0.28573664     0.73900
O301        O  0.12724491  0.67513805  0.24179384    -0.43000
C302        C  0.16290381  0.79203030  0.25781701     0.78600
O303        O  0.08590130  0.67695362  0.18703673    -0.54800
O304        O  0.14565457  0.77490314  0.30195251    -0.44900
O305        O  0.07696240  0.72911844  0.18706667    -0.51200
C306        C  0.02552141  0.68244397  0.30502433     0.88800
O307        O  0.14004758  0.70341843  0.31964207    -0.53100
O308        O  0.14610713  0.77095317  0.21636030    -0.56400
In309      In  0.09962402  0.36457752  0.25080861     1.36900
C310        C  0.07727130  0.35612769  0.35203480     0.81300
O311        O  0.04509879  0.36140256  0.20856164    -0.57200
O312        O  0.04565417  0.30547412  0.21875872    -0.48100
C313        C  0.14641169  0.44357797  0.22671023     0.73900
O314        O  0.12721881  0.43124438  0.27069874    -0.43000
C315        C  0.16197081  0.34945818  0.25473197     0.78600
O316        O  0.08564262  0.38815774  0.32545132    -0.54800
O317        O  0.14474273  0.34933887  0.21060005    -0.44900
O318        O  0.07606272  0.32678662  0.32536087    -0.51200
C319        C  0.02493875  0.32259590  0.20741284     0.88800
O320        O  0.13973708  0.41559292  0.19280536    -0.53100
O321        O  0.14530346  0.35391377  0.29617620    -0.56400
In322      In  0.27844265  0.36421907  0.26169452     1.36900
C323        C  0.20103844  0.34937796  0.25784706     0.81300
O324        O  0.28966769  0.41537286  0.31959790    -0.57200
O325        O  0.31786565  0.43084788  0.24170102    -0.48100
C326        C  0.31082478  0.32200816  0.30508881     0.73900
O327        O  0.27298711  0.30499802  0.29365438    -0.43000
C328        C  0.29224644  0.35570297  0.16044752     0.78600
O329        O  0.21816009  0.34927636  0.30197579    -0.54800
O330        O  0.31606962  0.38768623  0.18704840    -0.44900
O331        O  0.22209772  0.35366796  0.21638507    -0.51200
C332        C  0.31111406  0.44329207  0.28565708     0.88800
O333        O  0.32963876  0.36082823  0.30403943    -0.53100
O334        O  0.26397841  0.32642652  0.18711018    -0.56400
C335        C  0.33647124  0.56254774  0.29854276     0.01200
C336        C  0.24080843  0.56269474  0.21383202     0.01200
C337        C  0.27459749  0.56137258  0.24249563    -0.09600
C338        C  0.30138706  0.56132442  0.26992719    -0.11200
C339        C  0.32455565  0.48608698  0.29402274    -0.09600
C340        C  0.33207607  0.52140160  0.29587643    -0.11200
C341        C  0.17597614  0.48632011  0.21827528    -0.09600
C342        C  0.20392504  0.52158802  0.21642112    -0.11200
C343        C  0.33244829  0.78986262  0.21643358    -0.09600
C344        C  0.32519778  0.81781889  0.21826256    -0.11200
C345        C  0.23352128  0.59286529  0.24255375    -0.09600
C346        C  0.23344571  0.61968635  0.26984886    -0.11200
C347        C  0.20375168  0.66125329  0.29592224    -0.09600
C348        C  0.17586751  0.66860582  0.29409624    -0.11200
C349        C  0.30128453  0.71915131  0.24247558    -0.09600
C350        C  0.27444528  0.69232933  0.26993516    -0.11200
C351        C  0.40073453  0.76002924  0.26984790    -0.09600
C352        C  0.37391724  0.76008966  0.24254701    -0.11200
C353        C  0.37399801  0.59271802  0.26983045    -0.09600
C354        C  0.40089807  0.61959788  0.24254371    -0.11200
C355        C  0.43234010  0.69222432  0.24246057    -0.09600
C356        C  0.43228488  0.71901031  0.26990820    -0.11200
C357        C  0.50722987  0.81769852  0.29414370    -0.09600
C358        C  0.47199152  0.78970633  0.29599794    -0.11200
C359        C  0.50752539  0.66901869  0.21834752    -0.09600
C360        C  0.47221697  0.66148660  0.21651395    -0.11200
C361        C  0.42058431  0.65615773  0.15580703    -0.09600
C362        C  0.42059994  0.65616444  0.10656704    -0.11200
C363        C  0.50756493  0.66904375  0.04399640    -0.09600
C364        C  0.47225440  0.66150743  0.04587040    -0.11200
C365        C  0.42033859  0.74314590  0.40581557    -0.09600
C366        C  0.42035101  0.74314132  0.35657778    -0.11200
C367        C  0.50719580  0.81773008  0.46821157    -0.09600
C368        C  0.47195882  0.78973004  0.46639481    -0.11200
C369        C  0.43226419  0.71903393  0.49249497    -0.09600
C370        C  0.43237666  0.69224107  0.01992361    -0.11200
C371        C  0.25023087  0.65621954  0.40582247    -0.09600
C372        C  0.25024115  0.65622512  0.35658437    -0.11200
C373        C  0.33739105  0.74328498  0.15581948    -0.09600
C374        C  0.33740455  0.74328584  0.10658364    -0.11200
C375        C  0.37395381  0.76009630  0.01986294    -0.09600
C376        C  0.40069721  0.76003704  0.49253816    -0.11200
C377        C  0.30132069  0.71915455  0.01991838    -0.09600
C378        C  0.27441129  0.69231672  0.49247708    -0.11200
C379        C  0.33247815  0.78986350  0.04596915    -0.09600
C380        C  0.32522744  0.81782091  0.04415961    -0.11200
C381        C  0.17583607  0.66858463  0.46830224    -0.09600
C382        C  0.20372063  0.66123278  0.46647220    -0.11200
C383        C  0.33744830  0.57307421  0.35657169    -0.09600
C384        C  0.33744178  0.57307202  0.40581168    -0.11200
C385        C  0.40093767  0.61961487  0.01982595    -0.09600
C386        C  0.37398708  0.59272983  0.49254847    -0.11200
C387        C  0.25045401  0.57325625  0.10658667    -0.09600
C388        C  0.25044078  0.57325450  0.15582451    -0.11200
C389        C  0.23342351  0.61967305  0.49255147    -0.09600
C390        C  0.23355603  0.59286423  0.01984510    -0.11200
C391        C  0.30137648  0.56132512  0.49245903    -0.09600
C392        C  0.27463460  0.56137456  0.01992348    -0.11200
C393        C  0.32456280  0.48609616  0.46839313    -0.09600
C394        C  0.33207574  0.52140725  0.46651907    -0.11200
C395        C  0.20395786  0.52159047  0.04597901    -0.09600
C396        C  0.17600609  0.48632326  0.04413534    -0.11200
C397        C  0.82922870  0.49626819  0.46822552    -0.09600
C398        C  0.80128432  0.46099633  0.46637639    -0.11200
C399        C  0.68067509  0.49646858  0.04395576    -0.09600
C400        C  0.67315227  0.46115546  0.04583232    -0.11200
C401        C  0.70384681  0.42123725  0.01988115    -0.09600
C402        C  0.73061087  0.42119966  0.49243884    -0.11200
C403        C  0.60433258  0.36295024  0.99251132    -0.09600
C404        C  0.63123390  0.38983533  0.01979116    -0.11200
C405        C  0.57290399  0.29032464  0.99241449    -0.09600
C406        C  0.57296304  0.26354011  0.01985697    -0.11200
C407        C  0.53326984  0.19284782  0.04596018    -0.09600
C408        C  0.49802964  0.16485035  0.04414213    -0.11200
C409        C  0.49768522  0.31351203  0.46834806    -0.09600
C410        C  0.53299500  0.32104726  0.46647721    -0.11200
C411        C  0.77170289  0.38972351  0.49251262    -0.09600
C412        C  0.77179063  0.36288916  0.01980180    -0.11200
C413        C  0.80149278  0.32133424  0.04589230    -0.09600
C414        C  0.82938024  0.31398617  0.04407496    -0.11200
C415        C  0.63132098  0.22248138  0.49249508    -0.09600
C416        C  0.60452567  0.22253111  0.01980300    -0.11200
C417        C  0.67280287  0.19272214  0.46638633    -0.09600
C418        C  0.68005764  0.16476958  0.46820310    -0.11200
C419        C  0.70395366  0.26343360  0.49242330    -0.09600
C420        C  0.73080453  0.29024480  0.01987993    -0.11200
C421        C  0.75479324  0.40931685  0.35653457    -0.09600
C422        C  0.75478963  0.40932162  0.40577343    -0.11200
C423        C  0.82924931  0.49624688  0.29408104    -0.09600
C424        C  0.80130035  0.46097881  0.29593002    -0.11200
C425        C  0.66778172  0.40948192  0.10652915    -0.09600
C426        C  0.66777731  0.40947574  0.15576942    -0.11200
C427        C  0.67314442  0.46114671  0.21645981    -0.09600
C428        C  0.68066345  0.49645991  0.21830650    -0.11200
C429        C  0.70383749  0.42123026  0.24242050    -0.09600
C430        C  0.73062664  0.42118788  0.26985947    -0.11200
C431        C  0.58465025  0.32639750  0.35653417    -0.09600
C432        C  0.58464363  0.32639262  0.40577434    -0.11200
C433        C  0.60432613  0.36295217  0.26979628    -0.09600
C434        C  0.63122574  0.38983159  0.24250841    -0.11200
C435        C  0.58489853  0.23942581  0.10653147    -0.09600
C436        C  0.58489045  0.23942397  0.15576971    -0.11200
C437        C  0.57294862  0.26354319  0.24244002    -0.09600
C438        C  0.57288967  0.29032717  0.26988538    -0.11200
C439        C  0.49769966  0.31352736  0.29399004    -0.09600
C440        C  0.53300925  0.32106116  0.29583224    -0.11200
C441        C  0.53325223  0.19284877  0.21634166    -0.09600
C442        C  0.49801410  0.16485367  0.21819185    -0.11200
C443        C  0.75498141  0.32634422  0.15577148    -0.09600
C444        C  0.75498279  0.32634708  0.10653391    -0.11200
C445        C  0.77170725  0.38970083  0.26980543    -0.09600
C446        C  0.77178250  0.36288045  0.24250854    -0.11200
C447        C  0.80148086  0.32132095  0.21642410    -0.09600
C448        C  0.82936550  0.31396794  0.21826244    -0.11200
C449        C  0.66785652  0.23927829  0.35653009    -0.09600
C450        C  0.66785508  0.23928552  0.40576571    -0.11200
C451        C  0.63132344  0.22247116  0.26980357    -0.09600
C452        C  0.60450830  0.22253218  0.24249980    -0.11200
C453        C  0.68004163  0.16473866  0.29408986    -0.09600
C454        C  0.67279294  0.19269762  0.29591487    -0.11200
C455        C  0.70395483  0.26340955  0.26987330    -0.09600
C456        C  0.73079058  0.29023689  0.24241683    -0.11200
C457        C  0.66874815  0.22964226  0.79851565     0.01200
C458        C  0.76458825  0.32544218  0.71378541     0.01200
In459      In  0.72571366  0.08876035  0.76158974     1.36900
C460        C  0.80316532  0.15139877  0.75772377     0.81300
O461        O  0.74013527  0.06547808  0.68698073    -0.57200
O462        O  0.68806242  0.07454988  0.68695158    -0.48100
C463        C  0.69342171  0.01408205  0.80491806     0.73900
O464        O  0.73128038  0.03510941  0.79364980    -0.43000
C465        C  0.69325710  0.13524544  0.78568643     0.78600
O466        O  0.78602383  0.13416001  0.80185067    -0.54800
O467        O  0.68641695  0.11603555  0.74171679    -0.44900
O468        O  0.78207866  0.13462776  0.71625853    -0.51200
C469        C  0.71187165  0.06643678  0.66033359     0.88800
O470        O  0.67449538  0.03393123  0.80372995    -0.53100
O471        O  0.71462827  0.12869407  0.81959852    -0.56400
In472      In  0.90505340  0.26795881  0.75074048     1.36900
C473        C  0.92739010  0.28177090  0.85199734     0.81300
O474        O  0.85908586  0.21164437  0.79607317    -0.57200
O475        O  0.85960528  0.20764828  0.71049039    -0.48100
C476        C  0.85875126  0.30061934  0.72664371     0.73900
O477        O  0.87796898  0.30743375  0.77059762    -0.43000
C478        C  0.97969882  0.30012793  0.70739439     0.78600
O479        O  0.91933404  0.30562259  0.82538717    -0.54800
O480        O  0.95863753  0.26227290  0.71872359    -0.44900
O481        O  0.92828257  0.25346410  0.82534348    -0.51200
C482        C  0.84232798  0.19054041  0.75461545     0.88800
O483        O  0.86518978  0.27915313  0.69275105    -0.53100
O484        O  0.95989709  0.31910083  0.70853279    -0.56400
In485      In  0.37632885  0.08842202  0.75082792     1.36900
C486        C  0.36789474  0.06606636  0.85205318     0.81300
O487        O  0.36571083  0.13413395  0.79621711    -0.57200
O488        O  0.36105455  0.13352870  0.71064733    -0.48100
C489        C  0.45529094  0.13524141  0.72666098     0.73900
O490        O  0.44299125  0.11603157  0.77064456    -0.43000
C491        C  0.33431239  0.01371537  0.70745551     0.78600
O492        O  0.39991447  0.07443619  0.82546002    -0.54800
O493        O  0.31722882  0.03447088  0.71876131    -0.44900
O494        O  0.33856186  0.06486636  0.82539049    -0.51200
C495        C  0.36120915  0.15077926  0.75478556     0.88800
O496        O  0.42729227  0.12855127  0.69278483    -0.53100
O497        O  0.37311563  0.03384640  0.70862951    -0.56400
In498      In  0.37582414  0.26722606  0.76171096     1.36900
C499        C  0.36109895  0.18984101  0.75789062     0.81300
O500        O  0.33804483  0.25268813  0.68711590    -0.57200
O501        O  0.39924137  0.30486902  0.68705871    -0.48100
C502        C  0.33347441  0.29946170  0.80509232     0.73900
O503        O  0.31655180  0.26161671  0.79367351    -0.43000
C504        C  0.45489904  0.30003136  0.78565003     0.78600
O505        O  0.36102024  0.20697995  0.80202395    -0.54800
O506        O  0.44242534  0.30673579  0.74168930    -0.44900
O507        O  0.36532027  0.21087278  0.71642639    -0.51200
C508        C  0.36728969  0.28099659  0.66045422     0.88800
O509        O  0.37228531  0.31836421  0.80403031    -0.53100
O510        O  0.42700652  0.27856921  0.81960865    -0.56400
C511        C  0.57431585  0.22977435  0.71377647     0.01200
C512        C  0.57413562  0.32543332  0.79850559     0.01200
C513        C  0.66875261  0.42000831  0.71380090     0.01200
In514      In  0.72676999  0.61833251  0.75063927     1.36900
C515        C  0.80417596  0.63318187  0.75451892     0.81300
O516        O  0.74123435  0.65613386  0.82521487    -0.57200
O517        O  0.68915660  0.59486601  0.82529530    -0.48100
C518        C  0.69438279  0.66053314  0.70722952     0.73900
O519        O  0.73222236  0.67754762  0.71866220    -0.43000
C520        C  0.69410384  0.53926198  0.72667409     0.78600
O521        O  0.78706389  0.63329146  0.71037785    -0.54800
O522        O  0.68732355  0.55170366  0.77061290    -0.44900
O523        O  0.78310414  0.62887519  0.79596638    -0.51200
C524        C  0.71297920  0.62685303  0.85188823     0.88800
O525        O  0.67557110  0.62171515  0.70829024    -0.53100
O526        O  0.71557570  0.56718236  0.69274810    -0.56400
In527      In  0.90560116  0.61800329  0.76157788     1.36900
C528        C  0.92794157  0.62645759  0.66034751     0.81300
O529        O  0.85993138  0.62867644  0.71620294    -0.57200
O530        O  0.86046523  0.63322098  0.80178128    -0.48100
C531        C  0.85881341  0.53899932  0.78565722     0.73900
O532        O  0.87803397  0.55133915  0.74168809    -0.43000
C533        C  0.98028306  0.65998070  0.80499058     0.78600
O534        O  0.91957382  0.59442384  0.68692799    -0.54800
O535        O  0.95957098  0.67710493  0.79363851    -0.44900
O536        O  0.92915708  0.65579650  0.68702699    -0.51200
C537        C  0.84324829  0.63311199  0.75763646     0.88800
O538        O  0.86546188  0.56698050  0.81955581    -0.53100
O539        O  0.96012116  0.62117467  0.80383702    -0.56400
C540        C  0.76442336  0.41987679  0.79852128     0.01200
C541        C  0.66876326  0.22964289  0.96377214     0.01200
C542        C  0.76458587  0.32545792  0.54851677     0.01200
In543      In  0.72572093  0.08878941  0.50068286     1.36900
C544        C  0.71187177  0.06644000  0.60192701     0.81300
O545        O  0.67451291  0.03398263  0.45849088    -0.57200
O546        O  0.73129151  0.03514930  0.46858288    -0.48100
C547        C  0.69329300  0.13526025  0.97657103     0.73900
O548        O  0.68637306  0.11601431  0.52051161    -0.43000
C549        C  0.80316804  0.15142670  0.50463691     0.78600
O550        O  0.68806754  0.07456778  0.57531960    -0.54800
O551        O  0.78609216  0.13418126  0.96048697    -0.44900
O552        O  0.74012764  0.06547564  0.57527195    -0.51200
C553        C  0.69343127  0.01413069  0.45728849     0.88800
O554        O  0.71472338  0.12876220  0.94269466    -0.53100
O555        O  0.78204492  0.13467120  0.54606876    -0.56400
In556      In  0.90508471  0.26798342  0.01166735     1.36900
C557        C  0.92740448  0.28177316  0.91040515     0.81300
O558        O  0.95992352  0.31912162  0.05389509    -0.57200
O559        O  0.95863173  0.26227560  0.54371413    -0.48100
C560        C  0.85875537  0.30064291  0.53570969     0.73900
O561        O  0.87802729  0.30747877  0.99179405    -0.43000
C562        C  0.84233380  0.19056241  0.50776250     0.78600
O563        O  0.91935271  0.30563978  0.93701773    -0.54800
O564        O  0.85957336  0.20768116  0.55191071    -0.44900
O565        O  0.92830883  0.25348590  0.93706132    -0.51200
C566        C  0.97972037  0.30014557  0.05504745     0.88800
O567        O  0.86516634  0.27916137  0.56960873    -0.53100
O568        O  0.85915621  0.21165670  0.96631983    -0.56400
In569      In  0.37583665  0.26722796  0.50078976     1.36900
C570        C  0.36110253  0.18984098  0.50466187     0.81300
O571        O  0.42698940  0.27850763  0.94285053    -0.57200
O572        O  0.44245422  0.30678644  0.52069355    -0.48100
C573        C  0.33349313  0.29947334  0.45742166     0.73900
O574        O  0.31656519  0.26162803  0.46883960    -0.43000
C575        C  0.36728811  0.28099216  0.60204657     0.78600
O576        O  0.36092150  0.20692792  0.46053349    -0.54800
O577        O  0.39926031  0.30486153  0.57545365    -0.44900
O578        O  0.36544762  0.21093366  0.54611303    -0.51200
C579        C  0.45490706  0.30001675  0.97675733     0.88800
O580        O  0.37230374  0.31837035  0.45848082    -0.53100
O581        O  0.33804977  0.25270377  0.57537385    -0.56400
In582      In  0.37632651  0.08840455  0.01168748     1.36900
C583        C  0.36788918  0.06605782  0.91045726     0.81300
O584        O  0.37312711  0.03383987  0.05389448    -0.57200
O585        O  0.31719410  0.03445849  0.54375637    -0.48100
C586        C  0.45527815  0.13522742  0.53574673     0.73900
O587        O  0.44297217  0.11602316  0.99176915    -0.43000
C588        C  0.36118735  0.15076681  0.50777541     0.78600
O589        O  0.39990662  0.07441358  0.93705279    -0.54800
O590        O  0.36113274  0.13357161  0.55191156    -0.44900
O591        O  0.33855981  0.06485999  0.93712126    -0.51200
C592        C  0.33432445  0.01370671  0.05508140     0.88800
O593        O  0.42730741  0.12853225  0.56967116    -0.53100
O594        O  0.36560127  0.13405719  0.96632845    -0.56400
C595        C  0.57430991  0.22976781  0.54853168     0.01200
C596        C  0.57414207  0.32542381  0.96380553     0.01200
C597        C  0.66873536  0.42001118  0.54849977     0.01200
In598      In  0.72680244  0.61832601  0.01153436     1.36900
C599        C  0.80412926  0.63317731  0.50769687     0.81300
O600        O  0.71549622  0.56718939  0.56948088    -0.57200
O601        O  0.68739064  0.55168879  0.99157109    -0.48100
C602        C  0.69441363  0.66054033  0.05490021     0.73900
O603        O  0.73216686  0.67753695  0.54348978    -0.43000
C604        C  0.71299570  0.62685258  0.91029445     0.78600
O605        O  0.78701520  0.63331524  0.55182052    -0.54800
O606        O  0.68917502  0.59485890  0.93688710    -0.44900
O607        O  0.78312972  0.62882148  0.96622819    -0.51200
C608        C  0.69405534  0.53925367  0.53555568     0.88800
O609        O  0.67560066  0.62172097  0.05385526    -0.53100
O610        O  0.74125924  0.65612281  0.93696135    -0.56400
In611      In  0.90557040  0.61801954  0.50071934     1.36900
C612        C  0.92792677  0.62645799  0.60194345     0.81300
O613        O  0.96009314  0.62118897  0.45847120    -0.57200
O614        O  0.95955431  0.67712371  0.46870033    -0.48100
C615        C  0.85884382  0.53899099  0.97664820     0.73900
O616        O  0.87795287  0.55136096  0.52065709    -0.43000
C617        C  0.84321108  0.63312259  0.50460454     0.78600
O618        O  0.91956251  0.59443495  0.57534423    -0.54800
O619        O  0.86050373  0.63318837  0.96046254    -0.44900
O620        O  0.92911890  0.65579774  0.57528749    -0.51200
C621        C  0.98026342  0.66000257  0.45735245     0.88800
O622        O  0.86554150  0.56696706  0.94271941    -0.53100
O623        O  0.85990056  0.62871895  0.54605853    -0.56400
C624        C  0.76443084  0.41987886  0.96378395     0.01200
In625      In  0.09964166  0.36457514  0.01165726     1.36900
C626        C  0.07728004  0.35612682  0.91043532     0.81300
O627        O  0.14530454  0.35387622  0.96629938    -0.57200
O628        O  0.14476485  0.34937008  0.55189722    -0.48100
C629        C  0.14640687  0.44356764  0.53572649     0.73900
O630        O  0.12724989  0.43123430  0.99172779    -0.43000
C631        C  0.02495789  0.32259618  0.05505059     0.78600
O632        O  0.08564699  0.38815541  0.93702883    -0.54800
O633        O  0.04564367  0.30545632  0.54370188    -0.44900
O634        O  0.07608224  0.32678960  0.93709735    -0.51200
C635        C  0.16197526  0.34945154  0.50776318     0.88800
O636        O  0.13973448  0.41559552  0.56964870    -0.53100
O637        O  0.04512368  0.36140920  0.05391511    -0.56400
In638      In  0.27846092  0.36424041  0.50079622     1.36900
C639        C  0.20105299  0.34938986  0.50465660     0.81300
O640        O  0.26399156  0.32643794  0.57536532    -0.57200
O641        O  0.31607541  0.38770220  0.57545617    -0.48100
C642        C  0.31085366  0.32203166  0.45742046     0.73900
O643        O  0.27300680  0.30501859  0.46883345    -0.43000
C644        C  0.31114908  0.44329834  0.97678172     0.78600
O645        O  0.21815762  0.34924612  0.46052804    -0.54800
O646        O  0.31788169  0.43087851  0.52075391    -0.44900
O647        O  0.22213494  0.35373651  0.54611075    -0.51200
C648        C  0.29224726  0.35570679  0.60204228     0.88800
O649        O  0.32966671  0.36084610  0.45848491    -0.53100
O650        O  0.28969488  0.41536753  0.94285696    -0.56400
C651        C  0.24079753  0.56269010  0.54856691     0.01200
C652        C  0.33650088  0.56255094  0.96385030     0.01200
In653      In  0.10014041  0.71459763  0.50074499     1.36900
C654        C  0.07782818  0.70081014  0.60201156     0.81300
O655        O  0.14608209  0.77092004  0.54608872    -0.57200
O656        O  0.14561813  0.77489716  0.46050052    -0.48100
C657        C  0.14651642  0.68194827  0.97669291     0.73900
O658        O  0.12719117  0.67509068  0.52059717    -0.43000
C659        C  0.02550168  0.68244629  0.45736854     0.78600
O660        O  0.08587312  0.67694087  0.57539554    -0.54800
O661        O  0.04663419  0.72029382  0.96870158    -0.44900
O662        O  0.07692830  0.72910134  0.57535816    -0.51200
C663        C  0.16286928  0.79201301  0.50464260     0.88800
O664        O  0.14009528  0.70342451  0.94279876    -0.53100
O665        O  0.04529408  0.66346655  0.45851786    -0.56400
In666      In  0.27955306  0.89379568  0.01170986     1.36900
C667        C  0.29338913  0.91613456  0.91046083     0.81300
O668        O  0.22321266  0.84792065  0.96634534    -0.57200
O669        O  0.21914881  0.84839379  0.55191021    -0.48100
C670        C  0.31193300  0.84729958  0.53580066     0.73900
O671        O  0.31889561  0.86656881  0.99185768    -0.43000
C672        C  0.31182866  0.96845841  0.05508481     0.78600
O673        O  0.31720143  0.90801333  0.93706791    -0.54800
O674        O  0.27390788  0.94743062  0.54376762    -0.44900
O675        O  0.26513588  0.91709675  0.93711834    -0.51200
C676        C  0.20203405  0.83115050  0.50776433     0.88800
O677        O  0.29052520  0.85381706  0.56969133    -0.53100
O678        O  0.33075942  0.94861441  0.05388609    -0.56400
C679        C  0.33646020  0.75291367  0.54857970     0.01200
C680        C  0.24067970  0.65712835  0.96383661     0.01200
C681        C  0.43095446  0.75279885  0.96381601     0.01200
In682      In  0.62890720  0.89417506  0.50063868     1.36900
C683        C  0.63734298  0.91650405  0.60187669     0.81300
O684        O  0.63965908  0.84853050  0.54597264    -0.57200
O685        O  0.64404390  0.84899363  0.46038011    -0.48100
C686        C  0.54999166  0.84733275  0.97658868     0.73900
O687        O  0.56226342  0.86654922  0.52058296    -0.43000
C688        C  0.67092975  0.96888206  0.45727253     0.78600
O689        O  0.60533058  0.90816289  0.57528063    -0.54800
O690        O  0.68800536  0.94811981  0.46855669    -0.44900
O691        O  0.66666908  0.91769455  0.57521168    -0.51200
C692        C  0.64401083  0.83180536  0.50451626     0.88800
O693        O  0.57796168  0.85404139  0.94265484    -0.53100
O694        O  0.63212373  0.94875705  0.45845670    -0.56400
In695      In  0.62941209  0.71532565  0.01152461     1.36900
C696        C  0.64408845  0.79272718  0.50761915     0.81300
O697        O  0.66718942  0.72984266  0.93693173    -0.57200
O698        O  0.60597718  0.67768829  0.93686482    -0.48100
C699        C  0.67176287  0.68308679  0.05489224     0.73900
O700        O  0.68861574  0.72093375  0.54346909    -0.43000
C701        C  0.55030131  0.68254997  0.53556763     0.78600
O702        O  0.64429369  0.77565090  0.55174924    -0.54800
O703        O  0.56279027  0.67576346  0.99164057    -0.44900
O704        O  0.63980110  0.77162042  0.96619997    -0.51200
C705        C  0.63794004  0.70154952  0.91026488     0.88800
O706        O  0.63295598  0.66418952  0.05383597    -0.53100
O707        O  0.57822565  0.70405918  0.56946641    -0.56400
C708        C  0.43107093  0.65714165  0.54854111     0.01200
In709      In  0.62938757  0.71531750  0.75060417     1.36900
C710        C  0.64411513  0.79270325  0.75443389     0.81300
O711        O  0.57820405  0.70397313  0.69270875    -0.57200
O712        O  0.56278782  0.67580561  0.77062782    -0.48100
C713        C  0.67173202  0.68307906  0.70721977     0.73900
O714        O  0.68865857  0.72092858  0.71863508    -0.43000
C715        C  0.63793810  0.70155054  0.85185711     0.78600
O716        O  0.64420249  0.77556972  0.71029857    -0.54800
O717        O  0.60597720  0.67767522  0.82525895    -0.44900
O718        O  0.63987975  0.77166392  0.79589433    -0.51200
C719        C  0.55031226  0.68250968  0.72666842     0.88800
O720        O  0.63292498  0.66417969  0.70828375    -0.53100
O721        O  0.66717544  0.72985342  0.82519006    -0.56400
In722      In  0.62890213  0.89413192  0.76150544     1.36900
C723        C  0.63733682  0.91649072  0.66028103     0.81300
O724        O  0.63211621  0.94870410  0.80371523    -0.57200
O725        O  0.68800210  0.94807840  0.79358432    -0.48100
C726        C  0.54994007  0.84731297  0.78566877     0.73900
O727        O  0.56223957  0.86653167  0.74169156    -0.43000
C728        C  0.64401240  0.83176868  0.75754095     0.78600
O729        O  0.60531892  0.90812342  0.68687545    -0.54800
O730        O  0.64416379  0.84901545  0.80168220    -0.44900
O731        O  0.66666903  0.91768618  0.68694262    -0.51200
C732        C  0.67091695  0.96883289  0.80489769     0.88800
O733        O  0.57793815  0.85399394  0.81954075    -0.53100
O734        O  0.63952136  0.84842218  0.71611145    -0.56400
C735        C  0.43107892  0.65711566  0.71383595     0.01200
C736        C  0.43091571  0.75277963  0.79856834     0.01200
C737        C  0.24063948  0.65712364  0.79856809     0.01200
C738        C  0.33648300  0.75291476  0.71383275     0.01200
In739      In  0.27952683  0.89379555  0.75080312     1.36900
C740        C  0.29338659  0.91613091  0.85205429     0.81300
O741        O  0.33073846  0.94861918  0.70864499    -0.57200
O742        O  0.27395470  0.94744162  0.71873683    -0.48100
C743        C  0.31197888  0.84731291  0.72667846     0.73900
O744        O  0.31884058  0.86653326  0.77064177    -0.43000
C745        C  0.20207328  0.83116160  0.75470674     0.78600
O746        O  0.31718579  0.90800887  0.82543489    -0.54800
O747        O  0.21919944  0.84840856  0.71056935    -0.44900
O748        O  0.26512112  0.91709348  0.82541108    -0.51200
C749        C  0.31181163  0.96846678  0.70745437     0.88800
O750        O  0.29058759  0.85385031  0.69278576    -0.53100
O751        O  0.22317886  0.84791851  0.79615617    -0.56400
In752      In  0.10017126  0.71461102  0.76168038     1.36900
C753        C  0.07784163  0.70080917  0.66041979     0.81300
O754        O  0.04532187  0.66346548  0.80387651    -0.57200
O755        O  0.04658679  0.72029686  0.79370037    -0.48100
C756        C  0.14647326  0.68194465  0.78575271     0.73900
O757        O  0.12725511  0.67513956  0.74179982    -0.43000
C758        C  0.16290435  0.79202582  0.75781142     0.78600
O759        O  0.08589125  0.67695277  0.68702815    -0.54800
O760        O  0.14563923  0.77490937  0.80194407    -0.44900
O761        O  0.07695266  0.72911750  0.68707714    -0.51200
C762        C  0.02552164  0.68244503  0.80501607     0.88800
O763        O  0.14003248  0.70340261  0.81965797    -0.53100
O764        O  0.14612764  0.77093555  0.71635694    -0.56400
In765      In  0.09962149  0.36457162  0.75080355     1.36900
C766        C  0.07727409  0.35612755  0.85203122     0.81300
O767        O  0.04509800  0.36139740  0.70855085    -0.57200
O768        O  0.04564997  0.30546817  0.71875804    -0.48100
C769        C  0.14641026  0.44357217  0.72670557     0.73900
O770        O  0.12720925  0.43123814  0.77068918    -0.43000
C771        C  0.16196875  0.34945300  0.75472618     0.78600
O772        O  0.08564285  0.38815666  0.82544378    -0.54800
O773        O  0.14474181  0.34933518  0.71059651    -0.44900
O774        O  0.07606437  0.32678591  0.82536006    -0.51200
C775        C  0.02493646  0.32258539  0.70740814     0.88800
O776        O  0.13974229  0.41558642  0.69280468    -0.53100
O777        O  0.14529906  0.35390606  0.79617313    -0.56400
In778      In  0.27844185  0.36421821  0.76169563     1.36900
C779        C  0.20103697  0.34937440  0.75784783     0.81300
O780        O  0.28965908  0.41536997  0.81959750    -0.57200
O781        O  0.31786636  0.43084731  0.74170627    -0.48100
C782        C  0.31082967  0.32201411  0.80509130     0.73900
O783        O  0.27298615  0.30499733  0.79365655    -0.43000
C784        C  0.29224708  0.35570533  0.66044886     0.78600
O785        O  0.21815708  0.34927132  0.80197284    -0.54800
O786        O  0.31606894  0.38768592  0.68704979    -0.44900
O787        O  0.22209841  0.35366761  0.71638258    -0.51200
C788        C  0.31110851  0.44328925  0.78565947     0.88800
O789        O  0.32963750  0.36082788  0.80404066    -0.53100
O790        O  0.26397793  0.32642613  0.68711120    -0.56400
C791        C  0.33646557  0.56254512  0.79854934     0.01200
C792        C  0.24080328  0.56269001  0.71382692     0.01200
C793        C  0.27459565  0.56137354  0.74249299    -0.09600
C794        C  0.30138216  0.56132585  0.76993345    -0.11200
C795        C  0.32454796  0.48608458  0.79402474    -0.09600
C796        C  0.33206788  0.52139802  0.79587868    -0.11200
C797        C  0.17597452  0.48631356  0.71827338    -0.09600
C798        C  0.20392278  0.52158238  0.71641987    -0.11200
C799        C  0.33244052  0.78986068  0.71645119    -0.09600
C800        C  0.32519235  0.81781806  0.71828414    -0.11200
C801        C  0.23351254  0.59285882  0.74254942    -0.09600
C802        C  0.23343817  0.61967905  0.76984602    -0.11200
C803        C  0.20374548  0.66124258  0.79594845    -0.09600
C804        C  0.17586140  0.66859535  0.79412416    -0.11200
C805        C  0.30127114  0.71914733  0.74247655    -0.09600
C806        C  0.27443301  0.69232171  0.76993283    -0.11200
C807        C  0.40072078  0.76001699  0.76985024    -0.09600
C808        C  0.37390422  0.76007698  0.74254902    -0.11200
C809        C  0.37399213  0.59271318  0.76983455    -0.09600
C810        C  0.40088982  0.61959307  0.74254570    -0.11200
C811        C  0.43233335  0.69221927  0.74246065    -0.09600
C812        C  0.43228276  0.71900812  0.76990479    -0.11200
C813        C  0.50722314  0.81770239  0.79411732    -0.09600
C814        C  0.47198391  0.78970634  0.79597620    -0.11200
C815        C  0.50751274  0.66901206  0.71832501    -0.09600
C816        C  0.47220208  0.66147905  0.71649078    -0.11200
C817        C  0.42055345  0.65615113  0.65581159    -0.09600
C818        C  0.42055385  0.65616161  0.60657216    -0.11200
C819        C  0.50750835  0.66905382  0.54397727    -0.09600
C820        C  0.47219868  0.66151552  0.54585905    -0.11200
C821        C  0.42037904  0.74314717  0.90581561    -0.09600
C822        C  0.42036776  0.74314317  0.85657735    -0.11200
C823        C  0.50726828  0.81771902  0.96819139    -0.09600
C824        C  0.47202534  0.78972268  0.96637608    -0.11200
C825        C  0.43232616  0.71902923  0.99248015    -0.09600
C826        C  0.43231431  0.69224454  0.51993652    -0.11200
C827        C  0.25027216  0.65622054  0.90581586    -0.09600
C828        C  0.25025805  0.65621906  0.85657933    -0.11200
C829        C  0.33736724  0.74328363  0.65582146    -0.09600
C830        C  0.33736003  0.74328233  0.60658500    -0.11200
C831        C  0.37388024  0.76009137  0.51984723    -0.09600
C832        C  0.40077107  0.76004253  0.99255471    -0.11200
C833        C  0.30124889  0.71914267  0.51993558    -0.09600
C834        C  0.27448185  0.69232761  0.99246131    -0.11200
C835        C  0.33240312  0.78985157  0.54598414    -0.09600
C836        C  0.32514688  0.81780486  0.54417467    -0.11200
C837        C  0.17590389  0.66859976  0.96832477    -0.09600
C838        C  0.20378790  0.66124743  0.96648763    -0.11200
C839        C  0.33745290  0.57307217  0.85658108    -0.09600
C840        C  0.33746431  0.57307142  0.90582128    -0.11200
C841        C  0.40088455  0.61961801  0.51982965    -0.09600
C842        C  0.37403417  0.59272899  0.99254690    -0.11200
C843        C  0.25042621  0.57325070  0.60657782    -0.09600
C844        C  0.25042756  0.57324931  0.65581629    -0.11200
C845        C  0.23348404  0.61968413  0.99254881    -0.09600
C846        C  0.23350363  0.59285575  0.51984561    -0.11200
C847        C  0.30142242  0.56132741  0.99248442    -0.09600
C848        C  0.27458842  0.56137122  0.51989918    -0.11200
C849        C  0.32459325  0.48609319  0.96839049    -0.09600
C850        C  0.33211170  0.52140575  0.96651976    -0.11200
C851        C  0.20391784  0.52158162  0.54597978    -0.09600
C852        C  0.17597060  0.48631254  0.54414013    -0.11200
C853        C  0.82927071  0.49625008  0.96822633    -0.09600
C854        C  0.80131484  0.46098388  0.96637752    -0.11200
C855        C  0.68062373  0.49646333  0.54395500    -0.09600
C856        C  0.67311584  0.46115250  0.54583105    -0.11200
C857        C  0.70382065  0.42124276  0.51987528    -0.09600
C858        C  0.73063847  0.42119714  0.99244436    -0.11200
C859        C  0.60431033  0.36294416  0.49251459    -0.09600
C860        C  0.63120861  0.38983068  0.51979655    -0.11200
C861        C  0.57287800  0.29031858  0.49241836    -0.09600
C862        C  0.57293339  0.26353343  0.51986364    -0.11200
C863        C  0.53324239  0.19283862  0.54596280    -0.09600
C864        C  0.49800286  0.16484174  0.54414418    -0.11200
C865        C  0.49770291  0.31351214  0.96836491    -0.09600
C866        C  0.53301288  0.32104949  0.96649040    -0.11200
C867        C  0.77171668  0.38970764  0.99250408    -0.09600
C868        C  0.77178131  0.36290608  0.51980697    -0.11200
C869        C  0.80148174  0.32134506  0.54587920    -0.09600
C870        C  0.82936756  0.31399223  0.54405894    -0.11200
C871        C  0.63133987  0.22247024  0.99249603    -0.09600
C872        C  0.60450086  0.22253178  0.51980239    -0.11200
C873        C  0.67281839  0.19270525  0.96637836    -0.09600
C874        C  0.68007550  0.16475298  0.96819489    -0.11200
C875        C  0.70397053  0.26341664  0.99241863    -0.09600
C876        C  0.73079070  0.29026086  0.51988010    -0.11200
C877        C  0.75480192  0.40932072  0.85653182    -0.09600
C878        C  0.75480559  0.40932043  0.90577139    -0.11200
C879        C  0.82924846  0.49625540  0.79407609    -0.09600
C880        C  0.80130118  0.46098622  0.79592493    -0.11200
C881        C  0.66776606  0.40948783  0.60652880    -0.09600
C882        C  0.66777123  0.40948281  0.65577019    -0.11200
C883        C  0.67314613  0.46115340  0.71646762    -0.09600
C884        C  0.68066483  0.49646608  0.71831534    -0.11200
C885        C  0.70383651  0.42123182  0.74241950    -0.09600
C886        C  0.73062628  0.42118925  0.76985903    -0.11200
C887        C  0.58465553  0.32640166  0.85653366    -0.09600
C888        C  0.58465505  0.32639775  0.90577312    -0.11200
C889        C  0.60432518  0.36295564  0.76979706    -0.09600
C890        C  0.63122494  0.38983694  0.74251101    -0.11200
C891        C  0.58487461  0.23941815  0.60653442    -0.09600
C892        C  0.58487503  0.23941810  0.65577290    -0.11200
C893        C  0.57294514  0.26354348  0.74244380    -0.09600
C894        C  0.57288871  0.29033051  0.76988722    -0.11200
C895        C  0.49769947  0.31352926  0.79399682    -0.09600
C896        C  0.53300996  0.32106407  0.79583888    -0.11200
C897        C  0.53324805  0.19284789  0.71635829    -0.09600
C898        C  0.49800787  0.16485168  0.71821107    -0.11200
C899        C  0.75498224  0.32635117  0.65577152    -0.09600
C900        C  0.75498013  0.32635814  0.60653498    -0.11200
C901        C  0.77171298  0.38970812  0.76980105    -0.09600
C902        C  0.77178785  0.36288647  0.74250769    -0.11200
C903        C  0.80148328  0.32132367  0.71641923    -0.09600
C904        C  0.82936572  0.31396965  0.71825700    -0.11200
C905        C  0.66786352  0.23927169  0.85652752    -0.09600
C906        C  0.66786791  0.23927298  0.90576472    -0.11200
C907        C  0.63132470  0.22247516  0.76980292    -0.09600
C908        C  0.60450811  0.22253510  0.74250215    -0.11200
C909        C  0.68004452  0.16473974  0.79406888    -0.09600
C910        C  0.67279516  0.19269935  0.79589698    -0.11200
C911        C  0.70395666  0.26341289  0.76987061    -0.09600
C912        C  0.73079294  0.29024196  0.74241548    -0.11200
loop_ 
_geom_bond_atom_site_label_1 
_geom_bond_atom_site_label_2 
_geom_bond_distance 
_geom_bond_site_symmetry_2 
_ccdc_geom_bond_type 
C1          C449   1.483       .  S
C1          C451   1.469       .  S
C1          C454   1.465       .  S
C1          C455   1.471       .  S
C2          C443   1.484       .  S
C2          C446   1.470       .  S
C2          C447   1.465       .  S
C2          C456   1.471       .  S
In3           O5   2.219       .  S
In3           O6   2.219       .  S
In3          O14   2.241       .  S
In3           O8   2.262       .  S
In3          O10   2.264       .  S
In3          O11   2.224       .  S
In3          O12   2.240       .  S
In3          O15   2.254       .  S
C4           O10   1.266       .  A
C4           O12   1.254       .  A
C4           C26   1.465       .  S
O5           C13   1.261       .  A
O6           C13   1.261       .  A
C7           O14   1.257       .  A
C7            O8   1.259       .  A
C7          C276   1.464   1_545  S
C9           O11   1.257       .  A
C9           O15   1.264       .  A
C9          C453   1.432       .  S
C13          C88   1.444       .  S
In16         O18   2.240       .  S
In16         O19   2.264       .  S
In16         O27   2.254       .  S
In16         O21   2.224       .  S
In16         O23   2.219       .  S
In16         O24   2.262       .  S
In16         O25   2.219       .  S
In16         O28   2.241       .  S
C17          O23   1.261       .  A
C17          O25   1.261       .  A
C17         C101   1.444       .  S
O18          C26   1.254       .  A
O19          C26   1.266       .  A
C20          O27   1.264       .  A
C20          O21   1.257       .  A
C20         C448   1.432       .  S
C22          O24   1.259       .  A
C22          O28   1.257       .  A
C22         C319   1.464   1_655  S
In29         O31   2.241       .  S
In29         O32   2.264       .  S
In29         O40   2.254       .  S
In29         O34   2.223       .  S
In29         O36   2.218       .  S
In29         O37   2.262       .  S
In29         O38   2.219       .  S
In29         O41   2.241       .  S
C30          O36   1.261       .  A
C30          O38   1.261       .  A
C30         C127   1.444       .  S
O31          C39   1.253       .  A
O32          C39   1.266       .  A
C33          O40   1.264       .  A
C33          O34   1.257       .  A
C33         C442   1.432       .  S
C35          O37   1.259       .  A
C35          O41   1.257       .  A
C35         C293   1.464   1_545  S
C39          C43   1.465       .  S
In42         O44   2.219       .  S
In42         O45   2.218       .  S
In42         O53   2.241       .  S
In42         O47   2.262       .  S
In42         O49   2.264       .  S
In42         O50   2.224       .  S
In42         O51   2.240       .  S
In42         O54   2.254       .  S
C43          O49   1.266       .  A
C43          O51   1.253       .  A
O44          C52   1.261       .  A
O45          C52   1.261       .  A
C46          O53   1.257       .  A
C46          O47   1.259       .  A
C46         C326   1.464       .  S
C48          O50   1.257       .  A
C48          O54   1.264       .  A
C48         C439   1.432       .  S
C52         C119   1.444       .  S
C55         C436   1.484       .  S
C55         C437   1.471       .  S
C55         C441   1.465       .  S
C55         C452   1.469       .  S
C56         C431   1.484       .  S
C56         C433   1.470       .  S
C56         C438   1.471       .  S
C56         C440   1.465       .  S
C57         C426   1.484       .  S
C57         C427   1.465       .  S
C57         C429   1.471       .  S
C57         C434   1.470       .  S
In58         O60   2.219       .  S
In58         O61   2.218       .  S
In58         O69   2.241       .  S
In58         O63   2.262       .  S
In58         O65   2.264       .  S
In58         O66   2.224       .  S
In58         O67   2.240       .  S
In58         O70   2.254       .  S
C59          O65   1.266       .  A
C59          O67   1.253       .  A
C59          C81   1.465       .  S
O60          C68   1.262       .  A
O61          C68   1.260       .  A
C62          O69   1.257       .  A
C62          O63   1.259       .  A
C62         C257   1.464       .  S
C64          O66   1.257       .  A
C64          O70   1.264       .  A
C64         C428   1.432       .  S
C68         C148   1.444       .  S
In71         O73   2.241       .  S
In71         O74   2.264       .  S
In71         O82   2.254       .  S
In71         O76   2.223       .  S
In71         O78   2.218       .  S
In71         O79   2.262       .  S
In71         O80   2.219       .  S
In71         O83   2.241       .  S
C72          O78   1.261       .  A
C72          O80   1.261       .  A
C72         C156   1.444       .  S
O73          C81   1.253       .  A
O74          C81   1.266       .  A
C75          O82   1.264       .  A
C75          O76   1.257       .  A
C75         C423   1.432       .  S
C77          O79   1.259       .  A
C77          O83   1.257       .  A
C77         C306   1.464   1_655  S
C84         C421   1.484       .  S
C84         C424   1.464       .  S
C84         C430   1.471       .  S
C84         C445   1.470       .  S
C85         C415   1.470       .  S
C85         C417   1.465       .  S
C85         C419   1.471       .  S
C85         C450   1.483       .  S
C86         C412   1.470       .  S
C86         C413   1.465       .  S
C86         C420   1.471       .  S
C86         C444   1.484       .  S
In87         O89   2.241   1_554  S
In87         O90   2.262   1_554  S
In87         O92   2.224       .  S
In87         O94   2.219       .  S
In87         O96   2.219       .  S
In87         O99   2.240       .  S
In87        O554   2.254   1_554  S
In87        O551   2.264   1_554  S
C88          O94   1.261       .  A
C88          O96   1.261       .  A
O89          C97   1.257       .  A
O90          C97   1.259       .  A
C91          O98   1.264       .  A
C91         O548   1.257       .  A
C91         C418   1.432       .  S
O92         C547   1.257   1_554  A
C93          O99   1.253       .  A
C93         O551   1.266   1_554  A
C93         C106   1.465       .  S
O95        In543   2.264       .  S
O95         C549   1.266       .  A
C97         C232   1.464   1_545  S
O98        In543   2.254       .  S
In100       O102   2.241       .  S
In100       O105   2.224       .  S
In100       O107   2.219       .  S
In100       O109   2.219       .  S
In100       O112   2.240       .  S
In100       O559   2.262       .  S
In100       O567   2.254       .  S
In100       O564   2.264       .  S
C101        O107   1.261       .  A
C101        O109   1.261       .  A
O102        C110   1.257       .  A
O103       In556   2.262       .  S
O103        C566   1.259       .  A
C104        O111   1.264       .  A
C104        O561   1.257   1_554  A
C104        C414   1.432       .  S
O105        C560   1.257       .  A
C106        O108   1.266       .  A
C106        O568   1.253   1_554  A
O108       In556   2.264       .  S
C110        O559   1.259       .  A
C110        C175   1.464   1_655  S
O111       In556   2.254       .  S
O112        C562   1.253       .  A
In113       O116   2.224       .  S
In113       O124   2.241   1_554  S
In113       O118   2.262   1_554  S
In113       O120   2.264   1_554  S
In113       O121   2.218       .  S
In113       O122   2.240       .  S
In113       O125   2.219       .  S
In113       O571   2.254   1_554  S
C114        O120   1.266   1_554  A
C114        O122   1.253       .  A
C114        C132   1.465       .  S
O115       In569   2.254       .  S
O115        C123   1.264       .  A
O116        C579   1.257   1_554  A
C117        O124   1.256       .  A
C117        O118   1.259       .  A
C117        C186   1.464       .  S
C119        O121   1.261       .  A
C119        O125   1.261       .  A
C123        O572   1.257       .  A
C123        C409   1.432       .  S
In126       O128   2.241       .  S
In126       O131   2.223       .  S
In126       O133   2.218       .  S
In126       O135   2.219       .  S
In126       O138   2.241       .  S
In126       O585   2.262       .  S
In126       O593   2.254       .  S
In126       O590   2.264       .  S
C127        O133   1.261       .  A
C127        O135   1.261       .  A
O128        C136   1.257       .  A
O129       In582   2.262       .  S
O129        C592   1.259       .  A
C130        O137   1.264       .  A
C130        O587   1.257   1_554  A
C130        C408   1.432       .  S
O131        C586   1.257       .  A
C132        O134   1.266       .  A
C132        O594   1.253   1_554  A
O134       In582   2.264       .  S
C136        O585   1.259       .  A
C136        C216   1.464   1_545  S
O137       In582   2.254       .  S
O138        C588   1.253       .  A
C139        C406   1.471       .  S
C139        C407   1.464       .  S
C139        C416   1.470       .  S
C139        C435   1.484       .  S
C140        C410   1.465       .  S
C140        C432   1.484       .  S
C140        C859   1.470       .  S
C140        C861   1.471       .  S
C141        C400   1.465       .  S
C141        C401   1.471       .  S
C141        C404   1.470       .  S
C141        C425   1.484       .  S
In142       O145   2.224       .  S
In142       O153   2.241       .  S
In142       O150   2.218       .  S
In142       O151   2.240       .  S
In142       O154   2.219       .  S
In142       O600   2.254       .  S
In142       O603   2.262       .  S
In142       O605   2.264       .  S
C143        O149   1.266       .  A
C143        O607   1.253   1_554  A
C143        C161   1.465       .  S
O144       In598   2.254       .  S
O144        C152   1.264       .  A
O145        C608   1.257       .  A
C146        O153   1.257       .  A
C146        O603   1.259       .  A
C146        C243   1.464       .  S
O147       In598   2.262       .  S
O147        C602   1.259       .  A
C148        O150   1.261       .  A
C148        O154   1.261       .  A
O149       In598   2.264       .  S
O151        C599   1.253       .  A
C152        O601   1.257   1_554  A
C152        C399   1.432       .  S
In155       O157   2.241   1_554  S
In155       O158   2.262   1_554  S
In155       O160   2.223       .  S
In155       O162   2.218       .  S
In155       O164   2.219       .  S
In155       O167   2.241       .  S
In155       O622   2.254   1_554  S
In155       O619   2.264   1_554  S
C156        O162   1.261       .  A
C156        O164   1.262       .  A
O157        C165   1.257       .  A
O158        C165   1.259       .  A
C159        O166   1.264       .  A
C159        O616   1.257       .  A
C159        C397   1.432       .  S
O160        C615   1.257   1_554  A
C161        O167   1.253       .  A
C161        O619   1.266   1_554  A
O163       In611   2.264       .  S
O163        C617   1.266       .  A
C165        C203   1.464   1_655  S
O166       In611   2.254       .  S
C168        C398   1.465       .  S
C168        C402   1.471       .  S
C168        C411   1.470       .  S
C168        C422   1.484       .  S
In169       O171   2.241       .  S
In169       O174   2.223       .  S
In169       O176   2.218       .  S
In169       O178   2.219       .  S
In169       O181   2.241       .  S
In169       O628   2.264       .  S
In169       O636   2.254       .  S
In169       O633   2.262       .  S
C170        O176   1.261       .  A
C170        O178   1.261       .  A
C170        C310   1.444       .  S
O171        C635   1.253       .  A
O172       In625   2.264       .  S
O172        C179   1.266       .  A
C173        O180   1.264       .  A
C173        O630   1.257   1_554  A
C173        C396   1.432       .  S
O174        C629   1.257       .  A
C175        O181   1.257       .  A
C175        O633   1.259       .  A
O177       In625   2.262       .  S
O177        C631   1.259       .  A
C179        O627   1.253   1_554  A
C179        C183   1.465       .  S
O180       In625   2.254       .  S
In182       O184   2.219       .  S
In182       O185   2.218       .  S
In182       O193   2.241   1_554  S
In182       O187   2.262   1_554  S
In182       O189   2.264   1_554  S
In182       O190   2.224       .  S
In182       O191   2.240       .  S
In182       O650   2.254   1_554  S
C183        O189   1.266   1_554  A
C183        O191   1.253       .  A
O184        C192   1.261       .  A
O185        C192   1.261       .  A
C186        O193   1.257       .  A
C186        O187   1.259       .  A
C188        O194   1.264       .  A
C188        O646   1.257       .  A
C188        C393   1.432       .  S
O190        C644   1.257   1_554  A
C192        C328   1.444       .  S
O194       In638   2.254       .  S
C195        C387   1.484       .  S
C195        C390   1.470       .  S
C195        C392   1.471       .  S
C195        C395   1.464       .  S
C196        C384   1.484       .  S
C196        C386   1.470       .  S
C196        C391   1.471       .  S
C196        C394   1.465       .  S
In197       O199   2.240       .  S
In197       O200   2.264   1_554  S
In197       O202   2.224       .  S
In197       O204   2.219       .  S
In197       O206   2.219       .  S
In197       O209   2.241   1_554  S
In197       O664   2.254   1_554  S
In197       O661   2.262   1_554  S
C198        O204   1.261       .  A
C198        O206   1.261       .  A
C198        C297   1.444       .  S
O199        C207   1.253       .  A
O200        C207   1.267   1_556  A
C201        O208   1.264       .  A
C201        O658   1.257       .  A
C201        C381   1.432       .  S
O202        C657   1.257   1_554  A
C203        O209   1.257       .  A
C203        O661   1.259       .  A
O205       In653   2.262       .  S
O205        C659   1.259       .  A
C207        C220   1.465       .  S
O208       In653   2.254       .  S
In210       O212   2.240       .  S
In210       O215   2.224       .  S
In210       O217   2.219       .  S
In210       O219   2.219       .  S
In210       O222   2.241       .  S
In210       O669   2.264       .  S
In210       O677   2.254       .  S
In210       O674   2.262       .  S
C211        O217   1.261       .  A
C211        O219   1.261       .  A
C211        C284   1.444       .  S
O212        C676   1.253       .  A
O213       In666   2.264       .  S
O213        C220   1.267       .  A
C214        O221   1.264       .  A
C214        O671   1.257   1_554  A
C214        C380   1.432       .  S
O215        C670   1.257       .  A
C216        O222   1.257       .  A
C216        O674   1.259       .  A
O218       In666   2.262       .  S
O218        C672   1.259       .  A
C220        O668   1.253   1_554  A
O221       In666   2.254       .  S
C223        C374   1.483       .  S
C223        C375   1.470       .  S
C223        C377   1.471       .  S
C223        C379   1.465       .  S
C224        C371   1.484       .  S
C224        C378   1.471       .  S
C224        C382   1.465       .  S
C224        C389   1.470       .  S
C225        C365   1.484       .  S
C225        C368   1.465       .  S
C225        C369   1.471       .  S
C225        C376   1.470       .  S
In226       O228   2.241       .  S
In226       O229   2.264   1_554  S
In226       O231   2.223       .  S
In226       O233   2.218       .  S
In226       O234   2.262   1_554  S
In226       O235   2.219       .  S
In226       O238   2.241   1_554  S
In226       O693   2.254   1_554  S
C227        O233   1.261       .  A
C227        O235   1.262       .  A
C227        C267   1.444       .  S
O228        C236   1.253       .  A
O229        C236   1.266   1_556  A
C230        O237   1.264       .  A
C230        O687   1.257       .  A
C230        C367   1.432       .  S
O231        C686   1.257   1_554  A
C232        O234   1.259       .  A
C232        O238   1.257       .  A
C236        C240   1.465       .  S
O237       In682   2.254       .  S
In239       O241   2.219       .  S
In239       O242   2.218       .  S
In239       O250   2.241       .  S
In239       O247   2.224       .  S
In239       O248   2.240       .  S
In239       O700   2.262       .  S
In239       O702   2.264       .  S
In239       O707   2.254       .  S
C240        O246   1.266       .  A
C240        O704   1.253   1_554  A
O241        C249   1.261       .  A
O242        C249   1.261       .  A
C243        O250   1.257       .  A
C243        O700   1.259       .  A
O244       In695   2.262       .  S
O244        C699   1.259       .  A
C245        O251   1.264       .  A
C245        O703   1.257   1_554  A
C245        C363   1.432       .  S
O246       In695   2.264       .  S
O247        C701   1.257       .  A
O248        C696   1.253       .  A
C249        C259   1.444       .  S
O251       In695   2.254       .  S
C252        C362   1.484       .  S
C252        C364   1.465       .  S
C252        C370   1.471       .  S
C252        C385   1.470       .  S
In253       O255   2.254       .  S
In253       O256   2.224       .  S
In253       O264   2.241       .  S
In253       O258   2.262       .  S
In253       O260   2.264       .  S
In253       O261   2.218       .  S
In253       O262   2.240       .  S
In253       O265   2.219       .  S
C254        O260   1.266       .  A
C254        O262   1.253       .  A
C254        C272   1.465       .  S
O255        C263   1.264       .  A
O256        C263   1.257       .  A
C257        O264   1.257       .  A
C257        O258   1.259       .  A
C259        O261   1.261       .  A
C259        O265   1.261       .  A
C263        C359   1.432       .  S
In266       O268   2.241       .  S
In266       O269   2.262       .  S
In266       O277   2.254       .  S
In266       O271   2.223       .  S
In266       O273   2.218       .  S
In266       O274   2.264       .  S
In266       O275   2.219       .  S
In266       O278   2.241       .  S
C267        O273   1.261       .  A
C267        O275   1.261       .  A
O268        C276   1.257       .  A
O269        C276   1.259       .  A
C270        O277   1.264       .  A
C270        O271   1.257       .  A
C270        C357   1.432       .  S
C272        O274   1.266       .  A
C272        O278   1.253       .  A
C279        C354   1.470       .  S
C279        C355   1.471       .  S
C279        C360   1.465       .  S
C279        C361   1.484       .  S
C280        C351   1.469       .  S
C280        C356   1.471       .  S
C280        C358   1.465       .  S
C280        C366   1.484       .  S
C281        C346   1.470       .  S
C281        C347   1.465       .  S
C281        C350   1.471       .  S
C281        C372   1.484       .  S
C282        C343   1.465       .  S
C282        C349   1.471       .  S
C282        C352   1.470       .  S
C282        C373   1.483       .  S
In283       O285   2.241       .  S
In283       O286   2.262       .  S
In283       O294   2.254       .  S
In283       O288   2.224       .  S
In283       O290   2.219       .  S
In283       O291   2.264       .  S
In283       O292   2.219       .  S
In283       O295   2.240       .  S
C284        O290   1.261       .  A
C284        O292   1.261       .  A
O285        C293   1.257       .  A
O286        C293   1.259       .  A
C287        O294   1.264       .  A
C287        O288   1.257       .  A
C287        C344   1.432       .  S
C289        O291   1.266       .  A
C289        O295   1.253       .  A
C289        C302   1.465       .  S
In296       O298   2.241       .  S
In296       O299   2.262       .  S
In296       O307   2.254       .  S
In296       O301   2.224       .  S
In296       O303   2.219       .  S
In296       O304   2.264       .  S
In296       O305   2.219       .  S
In296       O308   2.240       .  S
C297        O303   1.261       .  A
C297        O305   1.261       .  A
O298        C306   1.257       .  A
O299        C306   1.259       .  A
C300        O307   1.264       .  A
C300        O301   1.257       .  A
C300        C348   1.432       .  S
C302        O304   1.266       .  A
C302        O308   1.253       .  A
In309       O311   2.241       .  S
In309       O312   2.262       .  S
In309       O320   2.254       .  S
In309       O314   2.223       .  S
In309       O316   2.218       .  S
In309       O317   2.264       .  S
In309       O318   2.219       .  S
In309       O321   2.241       .  S
C310        O316   1.261       .  A
C310        O318   1.261       .  A
O311        C319   1.256       .  A
O312        C319   1.259       .  A
C313        O320   1.264       .  A
C313        O314   1.257       .  A
C313        C341   1.432       .  S
C315        O317   1.266       .  A
C315        O321   1.253       .  A
C315        C323   1.465       .  S
In322       O324   2.254       .  S
In322       O325   2.224       .  S
In322       O333   2.241       .  S
In322       O327   2.262       .  S
In322       O329   2.264       .  S
In322       O330   2.218       .  S
In322       O331   2.240       .  S
In322       O334   2.219       .  S
C323        O329   1.266       .  A
C323        O331   1.253       .  A
O324        C332   1.264       .  A
O325        C332   1.257       .  A
C326        O333   1.257       .  A
C326        O327   1.259       .  A
C328        O330   1.261       .  A
C328        O334   1.261       .  A
C332        C339   1.432       .  S
C335        C338   1.471       .  S
C335        C340   1.465       .  S
C335        C353   1.470       .  S
C335        C383   1.484       .  S
C336        C337   1.471       .  S
C336        C342   1.465       .  S
C336        C345   1.470       .  S
C336        C388   1.484       .  S
C337        C338   1.211       .  T
C339        C340   1.205       .  T
C341        C342   1.205       .  T
C343        C344   1.205       .  T
C345        C346   1.210       .  T
C347        C348   1.205       .  T
C349        C350   1.211       .  T
C351        C352   1.210       .  T
C353        C354   1.210       .  T
C355        C356   1.211       .  T
C357        C358   1.205       .  T
C359        C360   1.205       .  T
C361        C362   1.218       .  T
C363        C364   1.205       .  T
C365        C366   1.218       .  T
C367        C368   1.205       .  T
C369        C826   1.211       .  T
C370        C825   1.211   1_554  T
C371        C372   1.218       .  T
C373        C374   1.218       .  T
C375        C832   1.210   1_554  T
C376        C831   1.210       .  T
C377        C834   1.211   1_554  T
C378        C833   1.211       .  T
C379        C380   1.205       .  T
C381        C382   1.205       .  T
C383        C384   1.218       .  T
C385        C842   1.210   1_554  T
C386        C841   1.210       .  T
C387        C388   1.218       .  T
C389        C846   1.210       .  T
C390        C845   1.210   1_554  T
C391        C848   1.211       .  T
C392        C847   1.211   1_554  T
C393        C394   1.205       .  T
C395        C396   1.205       .  T
C397        C398   1.205       .  T
C399        C400   1.205       .  T
C401        C858   1.211   1_554  T
C402        C857   1.211       .  T
C403        C596   1.470       .  S
C403        C404   1.210   1_556  T
C405        C596   1.471       .  S
C405        C406   1.211   1_556  T
C407        C408   1.205       .  T
C409        C410   1.205       .  T
C411        C868   1.210       .  T
C412        C867   1.210   1_554  T
C413        C414   1.205       .  T
C415        C872   1.210       .  T
C416        C871   1.210   1_554  T
C417        C418   1.205       .  T
C419        C876   1.211       .  T
C420        C875   1.211   1_554  T
C421        C422   1.218       .  T
C423        C424   1.205       .  T
C425        C426   1.218       .  T
C427        C428   1.205       .  T
C429        C430   1.211       .  T
C431        C432   1.218       .  T
C433        C434   1.210       .  T
C435        C436   1.218       .  T
C437        C438   1.211       .  T
C439        C440   1.205       .  T
C441        C442   1.205       .  T
C443        C444   1.218       .  T
C445        C446   1.210       .  T
C447        C448   1.205       .  T
C449        C450   1.218       .  T
C451        C452   1.210       .  T
C453        C454   1.205       .  T
C455        C456   1.211       .  T
C457        C905   1.483       .  S
C457        C907   1.469       .  S
C457        C910   1.465       .  S
C457        C911   1.471       .  S
C458        C899   1.483       .  S
C458        C902   1.470       .  S
C458        C903   1.465       .  S
C458        C912   1.471       .  S
In459       O461   2.219       .  S
In459       O462   2.219       .  S
In459       O470   2.241       .  S
In459       O464   2.262       .  S
In459       O466   2.264       .  S
In459       O467   2.224       .  S
In459       O468   2.240       .  S
In459       O471   2.254       .  S
C460        O466   1.266       .  A
C460        O468   1.253       .  A
C460        C482   1.465       .  S
O461        C469   1.261       .  A
O462        C469   1.261       .  A
C463        O470   1.257       .  A
C463        O464   1.259       .  A
C463        C732   1.464   1_545  S
C465        O467   1.257       .  A
C465        O471   1.264       .  A
C465        C909   1.432       .  S
C469        C544   1.444       .  S
In472       O474   2.240       .  S
In472       O475   2.264       .  S
In472       O483   2.254       .  S
In472       O477   2.224       .  S
In472       O479   2.219       .  S
In472       O480   2.262       .  S
In472       O481   2.219       .  S
In472       O484   2.241       .  S
C473        O479   1.260       .  A
C473        O481   1.262       .  A
C473        C557   1.444       .  S
O474        C482   1.253       .  A
O475        C482   1.266       .  A
C476        O483   1.264       .  A
C476        O477   1.257       .  A
C476        C904   1.432       .  S
C478        O480   1.259       .  A
C478        O484   1.257       .  A
C478        C775   1.464   1_655  S
In485       O487   2.241       .  S
In485       O488   2.264       .  S
In485       O496   2.254       .  S
In485       O490   2.223       .  S
In485       O492   2.218       .  S
In485       O493   2.262       .  S
In485       O494   2.219       .  S
In485       O497   2.241       .  S
C486        O492   1.261       .  A
C486        O494   1.261       .  A
C486        C583   1.444       .  S
O487        C495   1.253       .  A
O488        C495   1.266       .  A
C489        O496   1.264       .  A
C489        O490   1.257       .  A
C489        C898   1.432       .  S
C491        O493   1.259       .  A
C491        O497   1.257       .  A
C491        C749   1.464   1_545  S
C495        C499   1.465       .  S
In498       O500   2.219       .  S
In498       O501   2.218       .  S
In498       O509   2.241       .  S
In498       O503   2.262       .  S
In498       O505   2.264       .  S
In498       O506   2.224       .  S
In498       O507   2.240       .  S
In498       O510   2.254       .  S
C499        O505   1.266       .  A
C499        O507   1.253       .  A
O500        C508   1.262       .  A
O501        C508   1.260       .  A
C502        O509   1.257       .  A
C502        O503   1.259       .  A
C502        C782   1.464       .  S
C504        O506   1.257       .  A
C504        O510   1.264       .  A
C504        C895   1.432       .  S
C508        C575   1.444       .  S
C511        C892   1.484       .  S
C511        C893   1.471       .  S
C511        C897   1.464       .  S
C511        C908   1.470       .  S
C512        C887   1.484       .  S
C512        C889   1.470       .  S
C512        C894   1.471       .  S
C512        C896   1.465       .  S
C513        C882   1.484       .  S
C513        C883   1.465       .  S
C513        C885   1.471       .  S
C513        C890   1.470       .  S
In514       O516   2.219       .  S
In514       O517   2.218       .  S
In514       O525   2.241       .  S
In514       O519   2.262       .  S
In514       O521   2.264       .  S
In514       O522   2.224       .  S
In514       O523   2.240       .  S
In514       O526   2.254       .  S
C515        O521   1.266       .  A
C515        O523   1.253       .  A
C515        C537   1.465       .  S
O516        C524   1.261       .  A
O517        C524   1.261       .  A
C518        O525   1.257       .  A
C518        O519   1.259       .  A
C518        C713   1.464       .  S
C520        O522   1.257       .  A
C520        O526   1.264       .  A
C520        C884   1.432       .  S
C524        C604   1.444       .  S
In527       O529   2.240       .  S
In527       O530   2.264       .  S
In527       O538   2.254       .  S
In527       O532   2.223       .  S
In527       O534   2.218       .  S
In527       O535   2.262       .  S
In527       O536   2.219       .  S
In527       O539   2.241       .  S
C528        O534   1.261       .  A
C528        O536   1.261       .  A
C528        C612   1.444       .  S
O529        C537   1.253       .  A
O530        C537   1.266       .  A
C531        O538   1.264       .  A
C531        O532   1.257       .  A
C531        C879   1.432       .  S
C533        O535   1.259       .  A
C533        O539   1.256       .  A
C533        C762   1.464   1_655  S
C540        C877   1.484       .  S
C540        C880   1.465       .  S
C540        C886   1.471       .  S
C540        C901   1.470       .  S
C541        C871   1.470       .  S
C541        C873   1.465       .  S
C541        C875   1.471       .  S
C541        C906   1.483       .  S
C542        C868   1.470       .  S
C542        C869   1.465       .  S
C542        C876   1.471       .  S
C542        C900   1.484       .  S
In543       O545   2.241       .  S
In543       O546   2.262       .  S
In543       O548   2.224       .  S
In543       O550   2.219       .  S
In543       O552   2.219       .  S
In543       O555   2.240       .  S
C544        O550   1.261       .  A
C544        O552   1.261       .  A
O545        C553   1.257       .  A
O546        C553   1.259       .  A
C547        O554   1.264       .  A
C547        C874   1.432       .  S
C549        O555   1.253       .  A
C549        C562   1.465       .  S
C553        C688   1.464   1_545  S
In556       O558   2.241       .  S
In556       O561   2.224   1_554  S
In556       O563   2.219   1_554  S
In556       O565   2.219   1_554  S
In556       O568   2.240   1_554  S
C557        O563   1.261       .  A
C557        O565   1.261       .  A
O558        C566   1.257       .  A
C560        O567   1.264       .  A
C560        C870   1.432       .  S
C562        O564   1.266       .  A
C566        C631   1.464   1_655  S
In569       O572   2.224       .  S
In569       O580   2.241       .  S
In569       O574   2.262       .  S
In569       O576   2.264       .  S
In569       O577   2.218       .  S
In569       O578   2.240       .  S
In569       O581   2.219       .  S
C570        O576   1.266       .  A
C570        O578   1.253       .  A
C570        C588   1.465       .  S
O571        C579   1.264       .  A
C573        O580   1.257       .  A
C573        O574   1.259       .  A
C573        C642   1.464       .  S
C575        O577   1.261       .  A
C575        O581   1.261       .  A
C579        C865   1.432       .  S
In582       O584   2.241       .  S
In582       O587   2.223   1_554  S
In582       O589   2.218   1_554  S
In582       O591   2.219   1_554  S
In582       O594   2.241   1_554  S
C583        O589   1.261       .  A
C583        O591   1.261       .  A
O584        C592   1.257       .  A
C586        O593   1.264       .  A
C586        C864   1.432       .  S
C588        O590   1.266       .  A
C592        C672   1.464   1_545  S
C595        C862   1.471       .  S
C595        C863   1.464       .  S
C595        C872   1.469       .  S
C595        C891   1.484       .  S
C596        C866   1.465       .  S
C596        C888   1.484       .  S
C597        C856   1.465       .  S
C597        C857   1.471       .  S
C597        C860   1.470       .  S
C597        C881   1.484       .  S
In598       O601   2.224   1_554  S
In598       O609   2.241       .  S
In598       O606   2.218   1_554  S
In598       O607   2.240   1_554  S
In598       O610   2.219   1_554  S
C599        O605   1.266       .  A
C599        C617   1.465       .  S
O600        C608   1.264       .  A
C602        O609   1.257       .  A
C602        C699   1.464       .  S
C604        O606   1.261       .  A
C604        O610   1.261       .  A
C608        C855   1.432       .  S
In611       O613   2.241       .  S
In611       O614   2.262       .  S
In611       O616   2.223       .  S
In611       O618   2.218       .  S
In611       O620   2.219       .  S
In611       O623   2.241       .  S
C612        O618   1.261       .  A
C612        O620   1.261       .  A
O613        C621   1.257       .  A
O614        C621   1.259       .  A
C615        O622   1.264       .  A
C615        C853   1.432       .  S
C617        O623   1.253       .  A
C621        C659   1.464   1_655  S
C624        C854   1.465       .  S
C624        C858   1.471       .  S
C624        C867   1.470       .  S
C624        C878   1.484       .  S
In625       O627   2.241   1_554  S
In625       O630   2.223   1_554  S
In625       O632   2.218   1_554  S
In625       O634   2.219   1_554  S
In625       O637   2.241       .  S
C626        O632   1.261       .  A
C626        O634   1.261       .  A
C626        C766   1.444       .  S
O628        C635   1.266       .  A
C629        O636   1.264       .  A
C629        C852   1.432       .  S
C631        O637   1.257       .  A
C635        C639   1.465       .  S
In638       O640   2.219       .  S
In638       O641   2.218       .  S
In638       O649   2.241       .  S
In638       O643   2.262       .  S
In638       O645   2.264       .  S
In638       O646   2.224       .  S
In638       O647   2.240       .  S
C639        O645   1.266       .  A
C639        O647   1.253       .  A
O640        C648   1.261       .  A
O641        C648   1.261       .  A
C642        O649   1.257       .  A
C642        O643   1.259       .  A
C644        O650   1.264       .  A
C644        C849   1.432       .  S
C648        C784   1.444       .  S
C651        C843   1.484       .  S
C651        C846   1.470       .  S
C651        C848   1.471       .  S
C651        C851   1.465       .  S
C652        C840   1.484       .  S
C652        C842   1.470       .  S
C652        C847   1.471       .  S
C652        C850   1.465       .  S
In653       O655   2.240       .  S
In653       O656   2.264       .  S
In653       O658   2.224       .  S
In653       O660   2.219       .  S
In653       O662   2.219       .  S
In653       O665   2.241       .  S
C654        O660   1.261       .  A
C654        O662   1.261       .  A
C654        C753   1.444       .  S
O655        C663   1.253       .  A
O656        C663   1.266       .  A
C657        O664   1.264       .  A
C657        C837   1.432       .  S
C659        O665   1.257       .  A
C663        C676   1.465       .  S
In666       O668   2.240   1_554  S
In666       O671   2.224   1_554  S
In666       O673   2.219   1_554  S
In666       O675   2.219   1_554  S
In666       O678   2.241       .  S
C667        O673   1.261       .  A
C667        O675   1.261       .  A
C667        C740   1.444       .  S
O669        C676   1.266       .  A
C670        O677   1.264       .  A
C670        C836   1.432       .  S
C672        O678   1.257       .  A
C679        C830   1.483       .  S
C679        C831   1.470       .  S
C679        C833   1.471       .  S
C679        C835   1.465       .  S
C680        C827   1.484       .  S
C680        C834   1.471       .  S
C680        C838   1.465       .  S
C680        C845   1.470       .  S
C681        C821   1.484       .  S
C681        C824   1.464       .  S
C681        C825   1.471       .  S
C681        C832   1.470       .  S
In682       O684   2.241       .  S
In682       O685   2.264       .  S
In682       O687   2.223       .  S
In682       O689   2.218       .  S
In682       O690   2.262       .  S
In682       O691   2.219       .  S
In682       O694   2.241       .  S
C683        O689   1.261       .  A
C683        O691   1.261       .  A
C683        C723   1.444       .  S
O684        C692   1.253       .  A
O685        C692   1.266       .  A
C686        O693   1.264       .  A
C686        C823   1.432       .  S
C688        O690   1.259       .  A
C688        O694   1.257       .  A
C692        C696   1.465       .  S
In695       O697   2.219   1_554  S
In695       O698   2.218   1_554  S
In695       O706   2.241       .  S
In695       O703   2.224   1_554  S
In695       O704   2.240   1_554  S
C696        O702   1.266       .  A
O697        C705   1.261       .  A
O698        C705   1.261       .  A
C699        O706   1.257       .  A
C701        O707   1.264       .  A
C701        C819   1.432       .  S
C705        C715   1.444       .  S
C708        C818   1.484       .  S
C708        C820   1.465       .  S
C708        C826   1.471       .  S
C708        C841   1.470       .  S
In709       O711   2.254       .  S
In709       O712   2.224       .  S
In709       O720   2.241       .  S
In709       O714   2.262       .  S
In709       O716   2.264       .  S
In709       O717   2.218       .  S
In709       O718   2.240       .  S
In709       O721   2.219       .  S
C710        O716   1.266       .  A
C710        O718   1.253       .  A
C710        C728   1.465       .  S
O711        C719   1.264       .  A
O712        C719   1.257       .  A
C713        O720   1.257       .  A
C713        O714   1.259       .  A
C715        O717   1.261       .  A
C715        O721   1.261       .  A
C719        C815   1.432       .  S
In722       O724   2.241       .  S
In722       O725   2.262       .  S
In722       O733   2.254       .  S
In722       O727   2.223       .  S
In722       O729   2.218       .  S
In722       O730   2.264       .  S
In722       O731   2.219       .  S
In722       O734   2.241       .  S
C723        O729   1.261       .  A
C723        O731   1.261       .  A
O724        C732   1.257       .  A
O725        C732   1.259       .  A
C726        O733   1.264       .  A
C726        O727   1.257       .  A
C726        C813   1.432       .  S
C728        O730   1.266       .  A
C728        O734   1.253       .  A
C735        C810   1.470       .  S
C735        C811   1.471       .  S
C735        C816   1.465       .  S
C735        C817   1.484       .  S
C736        C807   1.470       .  S
C736        C812   1.471       .  S
C736        C814   1.464       .  S
C736        C822   1.484       .  S
C737        C802   1.470       .  S
C737        C803   1.465       .  S
C737        C806   1.471       .  S
C737        C828   1.484       .  S
C738        C799   1.465       .  S
C738        C805   1.471       .  S
C738        C808   1.470       .  S
C738        C829   1.483       .  S
In739       O741   2.241       .  S
In739       O742   2.262       .  S
In739       O750   2.254       .  S
In739       O744   2.224       .  S
In739       O746   2.219       .  S
In739       O747   2.264       .  S
In739       O748   2.219       .  S
In739       O751   2.240       .  S
C740        O746   1.261       .  A
C740        O748   1.261       .  A
O741        C749   1.257       .  A
O742        C749   1.259       .  A
C743        O750   1.264       .  A
C743        O744   1.257       .  A
C743        C800   1.432       .  S
C745        O747   1.266       .  A
C745        O751   1.253       .  A
C745        C758   1.465       .  S
In752       O754   2.241       .  S
In752       O755   2.262       .  S
In752       O763   2.254       .  S
In752       O757   2.224       .  S
In752       O759   2.219       .  S
In752       O760   2.264       .  S
In752       O761   2.219       .  S
In752       O764   2.240       .  S
C753        O759   1.260       .  A
C753        O761   1.262       .  A
O754        C762   1.257       .  A
O755        C762   1.259       .  A
C756        O763   1.264       .  A
C756        O757   1.257       .  A
C756        C804   1.432       .  S
C758        O760   1.266       .  A
C758        O764   1.253       .  A
In765       O767   2.241       .  S
In765       O768   2.262       .  S
In765       O776   2.254       .  S
In765       O770   2.223       .  S
In765       O772   2.218       .  S
In765       O773   2.264       .  S
In765       O774   2.219       .  S
In765       O777   2.241       .  S
C766        O772   1.261       .  A
C766        O774   1.261       .  A
O767        C775   1.257       .  A
O768        C775   1.259       .  A
C769        O776   1.264       .  A
C769        O770   1.257       .  A
C769        C797   1.432       .  S
C771        O773   1.266       .  A
C771        O777   1.253       .  A
C771        C779   1.465       .  S
In778       O780   2.254       .  S
In778       O781   2.224       .  S
In778       O789   2.241       .  S
In778       O783   2.262       .  S
In778       O785   2.264       .  S
In778       O786   2.218       .  S
In778       O787   2.240       .  S
In778       O790   2.219       .  S
C779        O785   1.266       .  A
C779        O787   1.253       .  A
O780        C788   1.264       .  A
O781        C788   1.257       .  A
C782        O789   1.257       .  A
C782        O783   1.259       .  A
C784        O786   1.261       .  A
C784        O790   1.261       .  A
C788        C795   1.432       .  S
C791        C794   1.471       .  S
C791        C796   1.465       .  S
C791        C809   1.470       .  S
C791        C839   1.484       .  S
C792        C793   1.471       .  S
C792        C798   1.465       .  S
C792        C801   1.470       .  S
C792        C844   1.484       .  S
C793        C794   1.211       .  T
C795        C796   1.205       .  T
C797        C798   1.205       .  T
C799        C800   1.205       .  T
C801        C802   1.210       .  T
C803        C804   1.205       .  T
C805        C806   1.211       .  T
C807        C808   1.210       .  T
C809        C810   1.210       .  T
C811        C812   1.211       .  T
C813        C814   1.205       .  T
C815        C816   1.205       .  T
C817        C818   1.218       .  T
C819        C820   1.205       .  T
C821        C822   1.218       .  T
C823        C824   1.205       .  T
C827        C828   1.218       .  T
C829        C830   1.218       .  T
C835        C836   1.205       .  T
C837        C838   1.205       .  T
C839        C840   1.218       .  T
C843        C844   1.218       .  T
C849        C850   1.205       .  T
C851        C852   1.205       .  T
C853        C854   1.205       .  T
C855        C856   1.205       .  T
C859        C860   1.210       .  T
C861        C862   1.211       .  T
C863        C864   1.205       .  T
C865        C866   1.205       .  T
C869        C870   1.205       .  T
C873        C874   1.205       .  T
C877        C878   1.218       .  T
C879        C880   1.205       .  T
C881        C882   1.218       .  T
C883        C884   1.205       .  T
C885        C886   1.211       .  T
C887        C888   1.218       .  T
C889        C890   1.210       .  T
C891        C892   1.218       .  T
C893        C894   1.211       .  T
C895        C896   1.205       .  T
C897        C898   1.205       .  T
C899        C900   1.218       .  T
C901        C902   1.210       .  T
C903        C904   1.205       .  T
C905        C906   1.218       .  T
C907        C908   1.210       .  T
C909        C910   1.205       .  T
C911        C912   1.211       .  T
