geometry optimzed in LAMMPS
_audit_creation_date              2020-11-30 
_audit_creation_method            'lammps2cif' 
_symmetry_space_group_name_H-M    'P1' 
_symmetry_Int_Tables_number       1 
_symmetry_cell_setting            triclinic 
loop_ 
_symmetry_equiv_pos_as_xyz 
  x,y,z 
_cell_length_a                    40.99162925 
_cell_length_b                    25.529255341780765 
_cell_length_c                    48.28359679508791 
_cell_angle_alpha                 90.77676668498925 
_cell_angle_beta                  90.01540562588784 
_cell_angle_gamma                 89.20598233166291 
loop_ 
_atom_site_label 
_atom_site_type_symbol 
_atom_site_fract_x 
_atom_site_fract_y 
_atom_site_fract_z 
_atom_site_charge 
O1          O  0.72880343  0.16171135  0.36569942    -0.56000
C2          C  0.71199136  0.31900103  0.36574238     0.76600
O3          O  0.64943068  0.22433855  0.31300039    -0.57200
C4          C  0.71293657  0.11956708  0.36572449     0.76600
C5          C  0.63017527  0.22265009  0.39924652     0.79000
Cd6        Cd  0.68102223  0.21938632  0.35805084     1.37500
O7          O  0.72703388  0.27653032  0.37078537    -0.56000
O8          O  0.65951981  0.23340022  0.40490487    -0.54800
C9          C  0.67482659  0.21748925  0.29834571     0.78900
O10         O  0.62422929  0.20959925  0.37432279    -0.57200
O11         O  0.68239499  0.31557655  0.35859118    -0.55700
O12         O  0.68220647  0.12372001  0.36446696    -0.55600
O13         O  0.70134744  0.21165882  0.31121428    -0.54800
O14         O  0.72938870  0.15663272  0.20088796    -0.56000
C15         C  0.71281401  0.31362760  0.20055144     0.76600
O16         O  0.62474827  0.20327954  0.19195220    -0.57200
C17         C  0.71356762  0.11446686  0.20015766     0.76600
C18         C  0.67492983  0.21647866  0.26793488     0.79000
Cd19       Cd  0.68151111  0.21464282  0.20822596     1.37500
O20         O  0.72771680  0.27083604  0.19533836    -0.56000
O21         O  0.70157189  0.21036344  0.25521213    -0.54800
C22         C  0.63038268  0.21721455  0.16731112     0.78900
O23         O  0.64958948  0.22173805  0.25313365    -0.57200
O24         O  0.68327123  0.31067936  0.20787317    -0.55700
O25         O  0.68281426  0.11863134  0.20084623    -0.55600
O26         O  0.65952419  0.22912640  0.16176485    -0.54800
N27         N  0.52001024  0.23682371  0.03378677    -0.34800
N28         N  0.47005165  0.24221000  0.07652891    -0.55400
N29         N  0.42084280  0.25737281  0.03406097    -0.34800
N30         N  0.47055861  0.24710087  0.49123312    -0.55400
C31         C  0.53701306  0.21991944  0.05604057     0.28800
C32         C  0.53721736  0.22246624  0.01092001     0.28800
C33         C  0.40174062  0.24874011  0.05636069     0.28800
C34         C  0.40209518  0.25120080  0.01120381     0.28800
C35         C  0.49694424  0.24509117  0.09266120     0.37400
C36         C  0.44442506  0.25604187  0.09280415     0.37400
C37         C  0.49760696  0.25322946  0.47567167     0.37400
C38         C  0.44515100  0.26426564  0.47583844     0.37400
C39         C  0.56534138  0.19446257  0.04723068    -0.20100
C40         C  0.56543525  0.19595963  0.01874596    -0.20100
C41         C  0.37036237  0.23745129  0.04753840    -0.20100
C42         C  0.37067685  0.23848627  0.01906060    -0.20100
C43         C  0.48834819  0.26059132  0.11932942    -0.21200
C44         C  0.45505904  0.26701306  0.11949291    -0.21200
C45         C  0.48936892  0.27449760  0.45031184    -0.21200
C46         C  0.45609929  0.28145102  0.45040761    -0.21200
C47         C  0.52879716  0.23037611  0.08407211    -0.16500
C48         C  0.52923524  0.23623915  0.48339515    -0.16500
C49         C  0.41203927  0.26072564  0.48365215    -0.16500
C50         C  0.41140041  0.25484550  0.08437688    -0.16500
H51         H  0.58419440  0.17716128  0.06002324     0.16400
H52         H  0.58438756  0.18004413  0.00535043     0.16400
H53         H  0.34921743  0.22995383  0.06020001     0.16400
H54         H  0.34990607  0.23172944  0.00570536     0.16400
H55         H  0.50428833  0.26594061  0.13697894     0.14700
H56         H  0.44042411  0.27793504  0.13735126     0.14700
H57         H  0.50557034  0.28355869  0.43339838     0.14700
H58         H  0.44160054  0.29689598  0.43357322     0.14700
H59         H  0.50006309  0.26240612  0.03433999     0.27900
H60         H  0.44413262  0.27290273  0.03453246     0.27900
O61         O  0.21380407  0.34197445  0.36767739    -0.56000
C62         C  0.22857533  0.18489027  0.36877335     0.76600
O63         O  0.29235459  0.28985121  0.31397637    -0.57200
C64         C  0.22946295  0.38393260  0.36475595     0.76600
C65         C  0.31230452  0.27940598  0.39923690     0.79000
Cd66       Cd  0.26080996  0.28260978  0.35883480     1.37500
O67         O  0.21307227  0.22809358  0.36997379    -0.56000
O68         O  0.28406703  0.29697639  0.40515328    -0.54800
C69         C  0.26761194  0.27957240  0.29925207     0.78900
O70         O  0.31694441  0.26444778  0.37438771    -0.57200
O71         O  0.25905897  0.18716561  0.36523315    -0.55700
O72         O  0.25987622  0.37933472  0.36075552    -0.55600
O73         O  0.24159422  0.27010193  0.31201790    -0.54800
O74         O  0.21454866  0.22485776  0.19598978    -0.56000
C75         C  0.22766162  0.38101007  0.20103539     0.76600
O76         O  0.29264133  0.28620473  0.25412312    -0.57200
C77         C  0.22959093  0.18225502  0.20097458     0.76600
C78         C  0.31154843  0.27322981  0.16851797     0.79000
Cd79       Cd  0.26045988  0.28137611  0.20926952     1.37500
O80         O  0.21193643  0.33893738  0.20273782    -0.56000
O81         O  0.28363466  0.25406205  0.16445398    -0.54800
C82         C  0.26753239  0.27948221  0.26887818     0.78900
O83         O  0.31609767  0.29656097  0.19150834    -0.57200
O84         O  0.25837618  0.37674140  0.20081400    -0.55700
O85         O  0.25921137  0.18546293  0.20820995    -0.55600
O86         O  0.24104815  0.27315319  0.25614028    -0.54800
O87         O  0.71425376  0.02640963  0.36978625    -0.56000
C88         C  0.72850378  0.36953835  0.36614285     0.76600
O89         O  0.79306611  0.46969405  0.31300052    -0.57200
C90         C  0.72941812  0.06831748  0.36520496     0.76600
C91         C  0.81111987  0.47212640  0.39903177     0.79000
Cd92       Cd  0.76064275  0.46773588  0.35776680     1.37500
O93         O  0.71269712  0.41239721  0.36558185    -0.56000
O94         O  0.78219389  0.98768592  0.40386256    -0.54800
C95         C  0.76768313  0.96638646  0.29812145     0.78900
O96         O  0.81679514  0.45334813  0.37502940    -0.57200
O97         O  0.75924435  0.37228730  0.36520649    -0.55700
O98         O  0.75917797  0.06378476  0.35851031    -0.55600
O99         O  0.74087864  0.46393212  0.31075639    -0.54800
O100        O  0.71350743  0.40697871  0.20113518    -0.56000
C101        C  0.73011108  0.06327600  0.20061380     0.76600
O102        O  0.79341943  0.96728787  0.25301565    -0.57200
C103        C  0.72934791  0.36415323  0.20006165     0.76600
C104        C  0.81163251  0.96720824  0.16669817     0.79000
Cd105      Cd  0.76135434  0.96310301  0.20805267     1.37500
O106        O  0.71531133  0.02119846  0.19499679    -0.56000
O107        O  0.78238618  0.48074174  0.16185676    -0.54800
C108        C  0.76785372  0.46536367  0.26771507     0.78900
O109        O  0.81777381  0.45012618  0.19072873    -0.57200
O110        O  0.75952276  0.05902263  0.20832013    -0.55700
O111        O  0.76011408  0.36706446  0.20034606    -0.55600
O112        O  0.74115762  0.96242586  0.25489596    -0.54800
N113        N  0.92069481  0.49693574  0.03304434    -0.34800
N114        N  0.97037136  0.50588167  0.49016801    -0.55400
N115        N  0.02015864  0.51365845  0.03333598    -0.34800
N116        N  0.97035394  0.50544180  0.07622529    -0.55400
C117        C  0.90304082  0.48380174  0.01030119     0.28800
C118        C  0.90308889  0.48298600  0.05546979     0.28800
C119        C  0.03893691  0.52212930  0.01077355     0.28800
C120        C  0.03886188  0.52242917  0.05605088     0.28800
C121        C  0.94397329  0.50290120  0.47348705     0.35400
C122        C  0.99640587  0.51303475  0.47355240     0.37400
C123        C  0.94395049  0.50153865  0.09277376     0.37400
C124        C  0.99630391  0.51281419  0.09303621     0.37400
C125        C  0.87382924  0.46195715  0.01842197    -0.20100
C126        C  0.87386696  0.46141277  0.04682422    -0.20100
C127        C  0.07008033  0.53555693  0.01931371    -0.20100
C128        C  0.07002541  0.53578904  0.04773880    -0.20100
C129        C  0.95323945  0.50875541  0.44610950    -0.21200
C130        C  0.98642672  0.51430328  0.44610639    -0.21200
C131        C  0.95313236  0.50702093  0.12028504    -0.21200
C132        C  0.98626885  0.51335931  0.12047393    -0.21200
C133        C  0.91194176  0.49164551  0.48230385    -0.16500
C134        C  0.91199643  0.48995546  0.08365324    -0.16500
C135        C  0.02893598  0.51944998  0.08418531    -0.16500
C136        C  0.02905035  0.51908970  0.48258926    -0.16500
H137        H  0.85451874  0.44740621  0.00523301     0.16400
H138        H  0.85457582  0.44638303  0.05965545     0.16400
H139        H  0.09067666  0.54524182  0.00642675     0.16400
H140        H  0.09057922  0.54564555  0.06078599     0.16400
H141        H  0.93787053  0.50808046  0.42789118     0.14700
H142        H  0.00135139  0.51896455  0.42785791     0.14700
H143        H  0.93774092  0.50566338  0.13845327     0.14700
H144        H  0.00113320  0.51798788  0.13883465     0.14700
H145        H  0.94183386  0.51883541  0.03329894     0.27900
H146        H  0.99666651  0.49949496  0.03319984     0.27900
O147        O  0.22749906  0.09149743  0.37058852    -0.56000
C148        C  0.21291421  0.43523245  0.36445354     0.76600
O149        O  0.12453195  0.55211452  0.37550702    -0.57200
C150        C  0.21189235  0.13444782  0.36883405     0.76600
C151        C  0.17409711  0.53550741  0.29884887     0.79000
Cd152      Cd  0.18071312  0.53553135  0.35849158     1.37500
O153        O  0.22837671  0.47756981  0.36735637    -0.56000
O154        O  0.20038907  0.04347434  0.31164737    -0.54800
C155        C  0.12964474  0.03281019  0.39920054     0.78900
O156        O  0.14909238  0.52759483  0.31355314    -0.57200
O157        O  0.18257481  0.43922615  0.35997563    -0.55700
O158        O  0.18149335  0.13163464  0.36482184    -0.55600
O159        O  0.15820165  0.51572899  0.40397275    -0.54800
O160        O  0.22875700  0.08878141  0.20116869    -0.56000
C161        C  0.21125021  0.43241562  0.20138845     0.76600
O162        O  0.14893343  0.52748548  0.25372238    -0.57200
C163        C  0.21301802  0.13173176  0.20047283     0.76600
C164        C  0.12962447  0.53225858  0.16790547     0.79000
Cd165      Cd  0.18056482  0.53371950  0.20882572     1.37500
O166        O  0.22632529  0.47407583  0.19602402    -0.56000
O167        O  0.15806208  0.01454440  0.16299305    -0.54800
C168        C  0.17405032  0.03518514  0.26845992     0.78900
O169        O  0.12457252  0.05167159  0.19186793    -0.57200
O170        O  0.18175267  0.43744478  0.20878388    -0.55700
O171        O  0.18226110  0.12911098  0.20124355    -0.55600
O172        O  0.20037420  0.54240299  0.25569393    -0.54800
C173        C  0.10157716  0.98501429  0.43685961     0.25400
C174        C  0.10370816  0.02967307  0.42025642    -0.22700
C175        C  0.08117303  0.07113329  0.42420721     0.20300
C176        C  0.05724758  0.06829523  0.44481261     0.25300
C177        C  0.05483543  0.02321537  0.46105342    -0.22700
C178        C  0.07708511  0.48156770  0.45684437     0.20200
F179        F  0.07491304  0.43743205  0.47207922    -0.12600
F180        F  0.12269665  0.44405331  0.43320081    -0.15000
F181        F  0.03633010  0.10936411  0.44891866    -0.15000
F182        F  0.08290513  0.11492196  0.40866015    -0.12600
C183        C  0.07707103  0.48189522  0.10926090     0.25400
C184        C  0.05472928  0.52348351  0.10583200    -0.22700
C185        C  0.05713970  0.06836076  0.12289263     0.20300
C186        C  0.08119640  0.07106041  0.14347070     0.25300
C187        C  0.10372214  0.52953679  0.14671586    -0.22700
C188        C  0.10156116  0.48508890  0.12932236     0.20200
F189        F  0.12263858  0.44403680  0.13228052    -0.12600
F190        F  0.07499795  0.43803515  0.09316848    -0.15000
F191        F  0.08306539  0.11477833  0.15968883    -0.15000
F192        F  0.03615048  0.10940523  0.11958894    -0.12600
C193        C  0.83612964  0.01451383  0.12702563     0.25400
C194        C  0.83721222  0.97219353  0.14539878    -0.22700
C195        C  0.86286745  0.43521104  0.14321291     0.20300
C196        C  0.88690163  0.44033412  0.12285265     0.25300
C197        C  0.88615153  0.98333313  0.10494990    -0.22700
C198        C  0.86056326  0.02027312  0.10716659     0.20200
F199        F  0.85945905  0.06221758  0.09017549    -0.12600
F200        F  0.81193011  0.05127101  0.12885159    -0.15000
F201        F  0.91094521  0.40342195  0.12055240    -0.15000
F202        F  0.86420515  0.39346780  0.16031869    -0.12600
C203        C  0.83622391  0.01859235  0.43944878     0.25400
C204        C  0.83686943  0.47647918  0.42032329    -0.22700
C205        C  0.86225110  0.43895569  0.42178329     0.20300
C206        C  0.88646644  0.44339434  0.44210838     0.25300
C207        C  0.88606362  0.48602197  0.46085535    -0.22700
C208        C  0.86073368  0.02346899  0.45940492     0.20200
F209        F  0.85993822  0.06501103  0.47726892    -0.12600
F210        F  0.81235082  0.05592138  0.43833319    -0.15000
F211        F  0.91032183  0.40611059  0.44357800    -0.15000
F212        F  0.86314096  0.39729294  0.40401014    -0.12600
C213        C  0.33904255  0.31123950  0.44291433     0.25400
C214        C  0.33828070  0.27565913  0.42040271    -0.22700
C215        C  0.36197798  0.23532807  0.41876000     0.20300
C216        C  0.38566525  0.23022490  0.43943164     0.25300
C217        C  0.38657620  0.26602502  0.46179245    -0.22700
C218        C  0.36316972  0.30672823  0.46328633     0.20200
F219        F  0.36374874  0.34213691  0.48451509    -0.12600
F220        F  0.31678116  0.35098580  0.44495371    -0.15000
F221        F  0.40748823  0.18978560  0.43787454    -0.15000
F222        F  0.36153234  0.19964787  0.39765472    -0.12600
C223        C  0.37838635  0.30841730  0.11842321     0.25400
C224        C  0.38567655  0.25950056  0.10603558    -0.22700
C225        C  0.36872788  0.21505477  0.11455510     0.20300
C226        C  0.34433120  0.21966830  0.13474341     0.25300
C227        C  0.33735855  0.26846496  0.14738523    -0.22700
C228        C  0.35471377  0.31273912  0.13924974     0.20200
F229        F  0.34796065  0.36041741  0.15083843    -0.12600
F230        F  0.39431027  0.35189825  0.11032389    -0.15000
F231        F  0.32801054  0.17628285  0.14243378    -0.15000
F232        F  0.37579101  0.16729006  0.10320136    -0.12600
C233        C  0.57737058  0.18663305  0.14705431     0.25400
C234        C  0.60439848  0.21998186  0.14605292    -0.22700
C235        C  0.60647498  0.25626451  0.12443788     0.20300
C236        C  0.58184749  0.25960924  0.10447964     0.25300
C237        C  0.55500904  0.22605646  0.10535695    -0.22700
C238        C  0.55310589  0.18919654  0.12666083     0.20200
F239        F  0.52772241  0.15566518  0.12764600    -0.12600
F240        F  0.57478741  0.15074310  0.16740323    -0.15000
F241        F  0.58391126  0.29624479  0.08444707    -0.15000
F242        F  0.63189996  0.28966475  0.12305291    -0.12600
C243        C  0.60793813  0.25882849  0.44404177     0.25400
C244        C  0.60431453  0.22572268  0.42069144    -0.22700
C245        C  0.57580762  0.19589333  0.41812037     0.20300
C246        C  0.55162947  0.19877740  0.43860535     0.25300
C247        C  0.55515160  0.23236000  0.46172730    -0.22700
C248        C  0.58344483  0.26251927  0.46416022     0.20200
F249        F  0.58716867  0.29607665  0.48595684    -0.12600
F250        F  0.63487535  0.28871727  0.44712345    -0.15000
F251        F  0.52480007  0.16850472  0.43598279    -0.15000
F252        F  0.57163757  0.16298429  0.39611641    -0.12600
O253        O  0.72880324  0.16171127  0.86569922    -0.56000
C254        C  0.71199128  0.31900087  0.86574227     0.76600
O255        O  0.64943047  0.22433842  0.81300028    -0.57200
C256        C  0.71293640  0.11956695  0.86572430     0.76600
C257        C  0.63017529  0.22265009  0.89924650     0.79000
Cd258      Cd  0.68102216  0.21938636  0.85805070     1.37500
O259        O  0.72703374  0.27653017  0.87078536    -0.56000
O260        O  0.65951980  0.23340044  0.90490482    -0.54800
C261        C  0.67482639  0.21748927  0.79834560     0.78900
O262        O  0.62422934  0.20959913  0.87432279    -0.57200
O263        O  0.68239494  0.31557646  0.85859093    -0.55700
O264        O  0.68220628  0.12371991  0.86446675    -0.55600
O265        O  0.70134726  0.21165905  0.81121417    -0.54800
O266        O  0.72938861  0.15663286  0.70088796    -0.56000
C267        C  0.71281379  0.31362781  0.70055129     0.76600
O268        O  0.62474819  0.20327973  0.69195211    -0.57200
C269        C  0.71356748  0.11446706  0.70015763     0.76600
C270        C  0.67492969  0.21647872  0.76793474     0.79000
Cd271      Cd  0.68151106  0.21464301  0.70822591     1.37500
O272        O  0.72771658  0.27083627  0.69533815    -0.56000
O273        O  0.70157177  0.21036360  0.75521202    -0.54800
C274        C  0.63038259  0.21721492  0.66731106     0.78900
O275        O  0.64958935  0.22173816  0.75313349    -0.57200
O276        O  0.68327107  0.31067954  0.70787316    -0.55700
O277        O  0.68281412  0.11863160  0.70084623    -0.55600
O278        O  0.65952409  0.22912674  0.66176481    -0.54800
N279        N  0.52001012  0.23682420  0.53378665    -0.34800
N280        N  0.47005159  0.24221060  0.57652873    -0.55400
N281        N  0.42084272  0.25737375  0.53406088    -0.34800
N282        N  0.47055873  0.24709999  0.99123324    -0.55400
C283        C  0.53701292  0.21991984  0.55604044     0.28800
C284        C  0.53721719  0.22246670  0.51091987     0.28800
C285        C  0.40174052  0.24874079  0.55636060     0.28800
C286        C  0.40209510  0.25120180  0.51120369     0.28800
C287        C  0.49694417  0.24509178  0.59266103     0.37400
C288        C  0.44442498  0.25604247  0.59280400     0.37400
C289        C  0.49760708  0.25322868  0.97567181     0.37400
C290        C  0.44515108  0.26426456  0.97583855     0.37400
C291        C  0.56534117  0.19446278  0.54723055    -0.20100
C292        C  0.56543499  0.19595994  0.51874585    -0.20100
C293        C  0.37036226  0.23745190  0.54753827    -0.20100
C294        C  0.37067677  0.23848713  0.51906046    -0.20100
C295        C  0.48834812  0.26059190  0.61932927    -0.21200
C296        C  0.45505895  0.26701367  0.61949277    -0.21200
C297        C  0.48936899  0.27449662  0.95031193    -0.21200
C298        C  0.45609935  0.28144983  0.95040764    -0.21200
C299        C  0.52879708  0.23037664  0.58407198    -0.16500
C300        C  0.52923536  0.23623853  0.98339527    -0.16500
C301        C  0.41203934  0.26072464  0.98365225    -0.16500
C302        C  0.41140032  0.25484607  0.58437674    -0.16500
H303        H  0.58419420  0.17716145  0.56002309     0.16400
H304        H  0.58438733  0.18004439  0.50535026     0.16400
H305        H  0.34921735  0.22995426  0.56019983     0.16400
H306        H  0.34990607  0.23173031  0.50570520     0.16400
H307        H  0.50428822  0.26594105  0.63697879     0.14700
H308        H  0.44042407  0.27793553  0.63735106     0.14700
H309        H  0.50557040  0.28355771  0.93339846     0.14700
H310        H  0.44160060  0.29689458  0.93357326     0.14700
H311        H  0.50006305  0.26240672  0.53433988     0.27900
H312        H  0.44413253  0.27290371  0.53453243     0.27900
O313        O  0.21380409  0.34197428  0.86767759    -0.56000
C314        C  0.22857548  0.18489005  0.86877340     0.76600
O315        O  0.29235461  0.28985133  0.81397653    -0.57200
C316        C  0.22946296  0.38393244  0.86475611     0.76600
C317        C  0.31230471  0.27940562  0.89923698     0.79000
Cd318      Cd  0.26081002  0.28260962  0.85883490     1.37500
O319        O  0.21307241  0.22809336  0.86997398    -0.56000
O320        O  0.28406722  0.29697590  0.90515346    -0.54800
C321        C  0.26761199  0.27957236  0.79925219     0.78900
O322        O  0.31694452  0.26444762  0.87438777    -0.57200
O323        O  0.25905909  0.18716542  0.86523312    -0.55700
O324        O  0.25987623  0.37933454  0.86075573    -0.55600
O325        O  0.24159429  0.27010169  0.81201798    -0.54800
O326        O  0.21454867  0.22485828  0.69598998    -0.56000
C327        C  0.22766181  0.38101052  0.70103540     0.76600
O328        O  0.29264141  0.28620499  0.75412330    -0.57200
C329        C  0.22959093  0.18225554  0.70097475     0.76600
C330        C  0.31154849  0.27322999  0.66851801     0.79000
Cd331      Cd  0.26045996  0.28137659  0.70926967     1.37500
O332        O  0.21193662  0.33893778  0.70273783    -0.56000
O333        O  0.28363478  0.25406199  0.66445411    -0.54800
C334        C  0.26753247  0.27948234  0.76887832     0.78900
O335        O  0.31609767  0.29656148  0.69150829    -0.57200
O336        O  0.25837635  0.37674190  0.70081403    -0.55700
O337        O  0.25921138  0.18546344  0.70821015    -0.55600
O338        O  0.24104821  0.27315345  0.75614040    -0.54800
O339        O  0.71425376  0.02640947  0.86978605    -0.56000
C340        C  0.72850374  0.36953815  0.86614272     0.76600
O341        O  0.79306608  0.46969432  0.81300043    -0.57200
C342        C  0.72941800  0.06831742  0.86520476     0.76600
C343        C  0.81111973  0.47212571  0.89903176     0.79000
Cd344      Cd  0.76064275  0.46773567  0.85776673     1.37500
O345        O  0.71269710  0.41239705  0.86558170    -0.56000
O346        O  0.78219376  0.98768573  0.90386254    -0.54800
C347        C  0.76768311  0.96638625  0.79812134     0.78900
O348        O  0.81679505  0.45334761  0.87502938    -0.57200
O349        O  0.75924430  0.37228705  0.86520634    -0.55700
O350        O  0.75917787  0.06378482  0.85851009    -0.55600
O351        O  0.74087864  0.46393161  0.81075630    -0.54800
O352        O  0.71350721  0.40697891  0.70113515    -0.56000
C353        C  0.73011089  0.06327619  0.70061375     0.76600
O354        O  0.79341934  0.96728810  0.75301548    -0.57200
C355        C  0.72934769  0.36415343  0.70006149     0.76600
C356        C  0.81163248  0.96720815  0.66669803     0.79000
Cd357      Cd  0.76135416  0.96310315  0.70805251     1.37500
O358        O  0.71531111  0.02119867  0.69499674    -0.56000
O359        O  0.78238616  0.48074198  0.66185670    -0.54800
C360        C  0.76785371  0.46536386  0.76771501     0.78900
O361        O  0.81777370  0.45012633  0.69072872    -0.57200
O362        O  0.75952254  0.05902279  0.70832008    -0.55700
O363        O  0.76011386  0.36706465  0.70034583    -0.55600
O364        O  0.74115758  0.96242529  0.75489591    -0.54800
N365        N  0.92069488  0.49693683  0.53304448    -0.34800
N366        N  0.97037126  0.50587997  0.99016776    -0.55400
N367        N  0.02015874  0.51365949  0.53333616    -0.34800
N368        N  0.97035408  0.50544245  0.57622535    -0.55400
C369        C  0.90304082  0.48380318  0.51030130     0.28800
C370        C  0.90308888  0.48298696  0.55546988     0.28800
C371        C  0.03893699  0.52213086  0.51077376     0.28800
C372        C  0.03886197  0.52243043  0.55605107     0.28800
C373        C  0.94397315  0.50289984  0.97348685     0.35400
C374        C  0.99640573  0.51303331  0.97355216     0.37400
C375        C  0.94395063  0.50153889  0.59277384     0.37400
C376        C  0.99630405  0.51281455  0.59303633     0.37400
C377        C  0.87382914  0.46195888  0.51842204    -0.20100
C378        C  0.87386684  0.46141410  0.54682430    -0.20100
C379        C  0.07008030  0.53555899  0.51931393    -0.20100
C380        C  0.07002540  0.53579088  0.54773903    -0.20100
C381        C  0.95323922  0.50875445  0.94610927    -0.21200
C382        C  0.98642654  0.51430227  0.94610613    -0.21200
C383        C  0.95313255  0.50702059  0.62028513    -0.21200
C384        C  0.98626907  0.51335899  0.62047408    -0.21200
C385        C  0.91194165  0.49164410  0.98230371    -0.16500
C386        C  0.91199652  0.48995605  0.58365332    -0.16500
C387        C  0.02893610  0.51945074  0.58418547    -0.16500
C388        C  0.02905023  0.51908812  0.98258904    -0.16500
H389        H  0.85451855  0.44740829  0.50523301     0.16400
H390        H  0.85457571  0.44638440  0.55965548     0.16400
H391        H  0.09067652  0.54524438  0.50642698     0.16400
H392        H  0.09057914  0.54564758  0.56078623     0.16400
H393        H  0.93787025  0.50807980  0.92789101     0.14700
H394        H  0.00135115  0.51896374  0.92785769     0.14700
H395        H  0.93774112  0.50566273  0.63845333     0.14700
H396        H  0.00113338  0.51798710  0.63883475     0.14700
H397        H  0.94183397  0.51883634  0.53329916     0.27900
H398        H  0.99666677  0.49949537  0.53319999     0.27900
O399        O  0.22749934  0.09149719  0.87058850    -0.56000
C400        C  0.21291423  0.43523234  0.86445365     0.76600
O401        O  0.12453198  0.55211429  0.87550703    -0.57200
C402        C  0.21189256  0.13444753  0.86883411     0.76600
C403        C  0.17409732  0.53550751  0.79884892     0.79000
Cd404      Cd  0.18071320  0.53553126  0.85849163     1.37500
O405        O  0.22837676  0.47756966  0.86735656    -0.56000
O406        O  0.20038924  0.04347424  0.81164746    -0.54800
C407        C  0.12964492  0.03280971  0.89920065     0.78900
O408        O  0.14909257  0.52759504  0.81355319    -0.57200
O409        O  0.18257487  0.43922613  0.85997560    -0.55700
O410        O  0.18149355  0.13163424  0.86482202    -0.55600
O411        O  0.15820157  0.51572845  0.90397273    -0.54800
O412        O  0.22875705  0.08878190  0.70116886    -0.56000
C413        C  0.21125036  0.43241608  0.70138845     0.76600
O414        O  0.14893362  0.52748572  0.75372245    -0.57200
C415        C  0.21301804  0.13173219  0.70047298     0.76600
C416        C  0.12962471  0.53225914  0.66790560     0.79000
Cd417      Cd  0.18056495  0.53371981  0.70882589     1.37500
O418        O  0.22632554  0.47407635  0.69602424    -0.56000
O419        O  0.15806211  0.01454462  0.66299319    -0.54800
C420        C  0.17405034  0.03518527  0.76846002     0.78900
O421        O  0.12457253  0.05167193  0.69186804    -0.57200
O422        O  0.18175277  0.43744522  0.70878368    -0.55700
O423        O  0.18226112  0.12911132  0.70124370    -0.55600
O424        O  0.20037445  0.54240287  0.75569405    -0.54800
C425        C  0.10157733  0.98501371  0.93685969     0.25400
C426        C  0.10370830  0.02967246  0.92025645    -0.22700
C427        C  0.08117301  0.07113255  0.92420713     0.20300
C428        C  0.05724748  0.06829447  0.94481244     0.25300
C429        C  0.05483539  0.02321465  0.96105326    -0.22700
C430        C  0.07708498  0.48156636  0.95684406     0.20200
F431        F  0.07491287  0.43743059  0.97207881    -0.12600
F432        F  0.12269662  0.44405236  0.93320041    -0.15000
F433        F  0.03632999  0.10936339  0.94891860    -0.15000
F434        F  0.08290517  0.11492119  0.90866007    -0.12600
C435        C  0.07707136  0.48189612  0.60926083     0.25400
C436        C  0.05472940  0.52348414  0.60583221    -0.22700
C437        C  0.05713968  0.06836095  0.62289277     0.20300
C438        C  0.08119636  0.07106062  0.64347085     0.25300
C439        C  0.10372234  0.52953736  0.64671601    -0.22700
C440        C  0.10156153  0.48508969  0.62932232     0.20200
F441        F  0.12263909  0.44403772  0.63228029    -0.12600
F442        F  0.07499849  0.43803643  0.59316808    -0.15000
F443        F  0.08306522  0.11477851  0.65968905    -0.15000
F444        F  0.03615052  0.10940544  0.61958897    -0.12600
C445        C  0.83612969  0.01451405  0.62702571     0.25400
C446        C  0.83721222  0.97219361  0.64539873    -0.22700
C447        C  0.86286736  0.43521115  0.64321277     0.20300
C448        C  0.88690156  0.44033429  0.62285253     0.25300
C449        C  0.88615156  0.98333322  0.60494995    -0.22700
C450        C  0.86056337  0.02027336  0.60716673     0.20200
F451        F  0.85945927  0.06221786  0.59017571    -0.12600
F452        F  0.81193000  0.05127108  0.62885160    -0.15000
F453        F  0.91094495  0.40342183  0.62055201    -0.15000
F454        F  0.86420474  0.39346755  0.66031830    -0.12600
C455        C  0.83622377  0.01859193  0.93944884     0.25400
C456        C  0.83686921  0.47647824  0.92032330    -0.22700
C457        C  0.86225098  0.43895479  0.92178311     0.20300
C458        C  0.88646635  0.44339331  0.94210814     0.25300
C459        C  0.88606345  0.48602063  0.96085530    -0.22700
C460        C  0.86073360  0.02346832  0.95940495     0.20200
F461        F  0.85993822  0.06501024  0.97726899    -0.12600
F462        F  0.81235068  0.05592101  0.93833338    -0.15000
F463        F  0.91032185  0.40610964  0.94357758    -0.15000
F464        F  0.86314097  0.39729237  0.90400974    -0.12600
C465        C  0.33904270  0.31123886  0.94291448     0.25400
C466        C  0.33828092  0.27565865  0.92040278    -0.22700
C467        C  0.36197812  0.23532740  0.91876007     0.20300
C468        C  0.38566526  0.23022391  0.93943180     0.25300
C469        C  0.38657626  0.26602408  0.96179261    -0.22700
C470        C  0.36316988  0.30672752  0.96328644     0.20200
F471        F  0.36374904  0.34213635  0.98451515    -0.12600
F472        F  0.31678126  0.35098514  0.94495393    -0.15000
F473        F  0.40748817  0.18978442  0.93787475    -0.15000
F474        F  0.36153239  0.19964731  0.89765474    -0.12600
C475        C  0.37838638  0.30841768  0.61842327     0.25400
C476        C  0.38567644  0.25950104  0.60603547    -0.22700
C477        C  0.36872773  0.21505519  0.61455490     0.20300
C478        C  0.34433105  0.21966859  0.63474325     0.25300
C479        C  0.33735861  0.26846516  0.64738525    -0.22700
C480        C  0.35471395  0.31273931  0.63924990     0.20200
F481        F  0.34796092  0.36041757  0.65083867    -0.12600
F482        F  0.39431030  0.35189874  0.61032408    -0.15000
F483        F  0.32801020  0.17628318  0.64243351    -0.15000
F484        F  0.37579079  0.16729062  0.60320096    -0.12600
C485        C  0.57737052  0.18663341  0.64705415     0.25400
C486        C  0.60439837  0.21998229  0.64605282    -0.22700
C487        C  0.60647493  0.25626490  0.62443779     0.20300
C488        C  0.58184744  0.25960959  0.60447948     0.25300
C489        C  0.55500896  0.22605697  0.60535684    -0.22700
C490        C  0.55310579  0.18919702  0.62666069     0.20200
F491        F  0.52772226  0.15566578  0.62764582    -0.12600
F492        F  0.57478743  0.15074333  0.66740301    -0.15000
F493        F  0.58391113  0.29624505  0.58444687    -0.15000
F494        F  0.63189995  0.28966503  0.62305286    -0.12600
C495        C  0.60793806  0.25882831  0.94404172     0.25400
C496        C  0.60431453  0.22572244  0.92069143    -0.22700
C497        C  0.57580772  0.19589275  0.91812042     0.20300
C498        C  0.55162964  0.19877665  0.93860549     0.25300
C499        C  0.55515173  0.23235933  0.96172741    -0.22700
C500        C  0.58344486  0.26251884  0.96416027     0.20200
F501        F  0.58716866  0.29607638  0.98595682    -0.12600
F502        F  0.63487512  0.28871748  0.94712328    -0.15000
F503        F  0.52480032  0.16850371  0.93598299    -0.15000
F504        F  0.57163767  0.16298376  0.89611643    -0.12600
O505        O  0.72880637  0.66170984  0.36569883    -0.56000
C506        C  0.71199299  0.81900093  0.36574242     0.76600
O507        O  0.64943388  0.72433650  0.31300014    -0.57200
C508        C  0.71293930  0.61956576  0.36572420     0.76600
C509        C  0.63017826  0.72264795  0.39924667     0.79000
Cd510      Cd  0.68102515  0.71938531  0.35805068     1.37500
O511        O  0.72703634  0.77653067  0.37078475    -0.56000
O512        O  0.65952301  0.73339659  0.40490520    -0.54800
C513        C  0.67482988  0.71748789  0.29834549     0.78900
O514        O  0.62423208  0.70959922  0.37432268    -0.57200
O515        O  0.68239648  0.81557545  0.35859178    -0.55700
O516        O  0.68220920  0.62371911  0.36446698    -0.55600
O517        O  0.70135078  0.71165838  0.31121409    -0.54800
O518        O  0.72939207  0.65663182  0.20088896    -0.56000
C519        C  0.71281549  0.81362761  0.20055127     0.76600
O520        O  0.62475117  0.70327788  0.19195209    -0.57200
C521        C  0.71357076  0.61446626  0.20015728     0.76600
C522        C  0.67493312  0.71647725  0.26793463     0.79000
Cd523      Cd  0.68151403  0.71464196  0.20822573     1.37500
O524        O  0.72771864  0.77083669  0.19533730    -0.56000
O525        O  0.70157520  0.71036290  0.25521182    -0.54800
C526        C  0.63038528  0.71721361  0.16731106     0.78900
O527        O  0.64959265  0.72173592  0.25313346    -0.57200
O528        O  0.68327306  0.81067817  0.20787381    -0.55700
O529        O  0.68281739  0.61863114  0.20084456    -0.55600
O530        O  0.65952663  0.72912634  0.16176479    -0.54800
N531        N  0.52001236  0.73682114  0.03378697    -0.34800
N532        N  0.47005343  0.74220564  0.07652903    -0.55400
N533        N  0.42084504  0.75736962  0.03406104    -0.34800
N534        N  0.47056104  0.74709812  0.49123313    -0.55400
C535        C  0.53701492  0.71991596  0.05604075     0.28800
C536        C  0.53721961  0.72246380  0.01092021     0.28800
C537        C  0.40174263  0.74873648  0.05636063     0.28800
C538        C  0.40209753  0.75119804  0.01120375     0.28800
C539        C  0.49694601  0.74508721  0.09266135     0.37400
C540        C  0.44442681  0.75603781  0.09280419     0.37400
C541        C  0.49760951  0.75322717  0.47567184     0.37400
C542        C  0.44515346  0.76426315  0.47583850     0.37400
C543        C  0.56534308  0.69445865  0.04723084    -0.20100
C544        C  0.56543719  0.69595640  0.01874616    -0.20100
C545        C  0.37036446  0.73744773  0.04753814    -0.20100
C546        C  0.37067914  0.73848337  0.01906034    -0.20100
C547        C  0.48834988  0.76058776  0.11932949    -0.21200
C548        C  0.45506070  0.76700947  0.11949290    -0.21200
C549        C  0.48937158  0.77449598  0.45031210    -0.21200
C550        C  0.45610189  0.78144908  0.45040780    -0.21200
C551        C  0.52879902  0.73037241  0.08407230    -0.16500
C552        C  0.52923773  0.73623642  0.48339532    -0.16500
C553        C  0.41204166  0.76072303  0.48365207    -0.16500
C554        C  0.41140218  0.75484163  0.08437683    -0.16500
H555        H  0.58419585  0.67715650  0.06002338     0.16400
H556        H  0.58438944  0.68004063  0.00535063     0.16400
H557        H  0.34921948  0.72994986  0.06019965     0.16400
H558        H  0.34990847  0.73172683  0.00570498     0.16400
H559        H  0.50428994  0.76593751  0.13697897     0.14700
H560        H  0.44042571  0.77793189  0.13735114     0.14700
H561        H  0.50557302  0.78355756  0.43339881     0.14700
H562        H  0.44160315  0.79689428  0.43357344     0.14700
H563        H  0.50006541  0.76240385  0.03434031     0.27900
H564        H  0.44413483  0.77289956  0.03453272     0.27900
O565        O  0.21380553  0.84197350  0.36767736    -0.56000
C566        C  0.22857713  0.68489144  0.36877275     0.76600
O567        O  0.29235673  0.78985496  0.31397634    -0.57200
C568        C  0.22946375  0.88393235  0.36475615     0.76600
C569        C  0.31230678  0.77940510  0.39923687     0.79000
Cd570      Cd  0.26081218  0.78261056  0.35883466     1.37500
O571        O  0.21307432  0.72809496  0.36997339    -0.56000
O572        O  0.28406943  0.79697598  0.40515332    -0.54800
C573        C  0.26761460  0.77957320  0.29925199     0.78900
O574        O  0.31694654  0.76444727  0.37438763    -0.57200
O575        O  0.25906078  0.68716633  0.36523251    -0.55700
O576        O  0.25987712  0.87933571  0.36075592    -0.55600
O577        O  0.24159724  0.77010021  0.31201776    -0.54800
O578        O  0.21455019  0.72485882  0.19598998    -0.56000
C579        C  0.22766251  0.88100951  0.20103543     0.76600
O580        O  0.29264353  0.78620857  0.25412297    -0.57200
C581        C  0.22959237  0.68225583  0.20097431     0.76600
C582        C  0.31155034  0.77322839  0.16851790     0.79000
Cd583      Cd  0.26046185  0.78137633  0.20926948     1.37500
O584        O  0.21193785  0.83893669  0.20274006    -0.56000
O585        O  0.28363607  0.75406273  0.16445358    -0.54800
C586        C  0.26753506  0.77948262  0.26887811     0.78900
O587        O  0.31610014  0.79655826  0.19150854    -0.57200
O588        O  0.25837706  0.87674131  0.20081174    -0.55700
O589        O  0.25921295  0.68546323  0.20820935    -0.55600
O590        O  0.24105114  0.77314996  0.25614029    -0.54800
O591        O  0.71425618  0.52640840  0.36978663    -0.56000
C592        C  0.72850453  0.86953900  0.36614301     0.76600
O593        O  0.79306438  0.96969871  0.31300101    -0.57200
C594        C  0.72942059  0.56831593  0.36520463     0.76600
C595        C  0.81111787  0.97213018  0.39903253     0.79000
Cd596      Cd  0.76064128  0.96773822  0.35776734     1.37500
O597        O  0.71269705  0.91239719  0.36558291    -0.56000
O598        O  0.78219664  0.48768626  0.40386131    -0.54800
C599        C  0.76768473  0.46638395  0.29812097     0.78900
O600        O  0.81679404  0.95335515  0.37502965    -0.57200
O601        O  0.75924501  0.87228938  0.36520589    -0.55700
O602        O  0.75918019  0.56378262  0.35850925    -0.55600
O603        O  0.74087712  0.96393249  0.31075688    -0.54800
O604        O  0.71350734  0.90697862  0.20113556    -0.56000
C605        C  0.73011376  0.56327505  0.20061338     0.76600
O606        O  0.79342101  0.46728324  0.25301512    -0.57200
C607        C  0.72934857  0.86415384  0.20006167     0.76600
C608        C  0.81163451  0.46720481  0.16669813     0.79000
Cd609      Cd  0.76135573  0.46310110  0.20805223     1.37500
O610        O  0.71531392  0.52119806  0.19499537    -0.56000
O611        O  0.78238377  0.98074295  0.16185686    -0.54800
C612        C  0.76785219  0.96536595  0.26771557     0.78900
O613        O  0.81777247  0.95013083  0.19072890    -0.57200
O614        O  0.75952502  0.55902079  0.20832073    -0.55700
O615        O  0.76011469  0.86706636  0.20034605    -0.55600
O616        O  0.74115897  0.46242629  0.25489555    -0.54800
N617        N  0.92069264  0.99694630  0.03304455    -0.34800
N618        N  0.97036973  0.00588691  0.49016828    -0.55400
N619        N  0.02015742  0.01366136  0.03333632    -0.34800
N620        N  0.97035211  0.00544885  0.07622546    -0.55400
C621        C  0.90303893  0.98381126  0.01030139     0.28800
C622        C  0.90308678  0.98299601  0.05546995     0.28800
C623        C  0.03893635  0.02212825  0.01077386     0.28800
C624        C  0.03886126  0.02242817  0.05605125     0.28800
C625        C  0.94397145  0.00290982  0.47348739     0.35400
C626        C  0.99640429  0.01304021  0.47355277     0.37400
C627        C  0.94394831  0.00154910  0.09277384     0.37400
C628        C  0.99630210  0.01282121  0.09303641     0.37400
C629        C  0.87382760  0.96196579  0.01842211    -0.20100
C630        C  0.87386517  0.96142166  0.04682437    -0.20100
C631        C  0.07008087  0.03554949  0.01931403    -0.20100
C632        C  0.07002589  0.03578160  0.04773914    -0.20100
C633        C  0.95323752  0.00876627  0.44610997    -0.21200
C634        C  0.98642496  0.01431239  0.44610686    -0.21200
C635        C  0.95312997  0.00703379  0.12028502    -0.21200
C636        C  0.98626664  0.01337008  0.12047405    -0.21200
C637        C  0.91193987  0.99165425  0.48230404    -0.16500
C638        C  0.91199419  0.98996590  0.08365339    -0.16500
C639        C  0.02893470  0.01945223  0.08418567    -0.16500
C640        C  0.02904918  0.01909076  0.48258954    -0.16500
H641        H  0.85451741  0.94741395  0.00523311     0.16400
H642        H  0.85457425  0.94639127  0.05965553     0.16400
H643        H  0.09067801  0.04523037  0.00642707     0.16400
H644        H  0.09058046  0.04563417  0.06078636     0.16400
H645        H  0.93786841  0.00809396  0.42789179     0.14700
H646        H  0.00134960  0.01897468  0.42785847     0.14700
H647        H  0.93773822  0.00567907  0.13845318     0.14700
H648        H  0.00113083  0.01799932  0.13883479     0.14700
H649        H  0.94183141  0.01884677  0.03329916     0.27900
H650        H  0.99666376  0.99950443  0.03320020     0.27900
O651        O  0.22750057  0.59149869  0.37058749    -0.56000
C652        C  0.21291416  0.93523151  0.36445385     0.76600
O653        O  0.12453116  0.05211422  0.37550744    -0.57200
C654        C  0.21189391  0.63444921  0.36883346     0.76600
C655        C  0.17409633  0.03550470  0.29884912     0.79000
Cd656      Cd  0.18071209  0.03552948  0.35849182     1.37500
O657        O  0.22837604  0.97756943  0.36735695    -0.56000
O658        O  0.20038953  0.54347971  0.31164710    -0.54800
C659        C  0.12964621  0.53281326  0.39920068     0.78900
O660        O  0.14909120  0.02759492  0.31355337    -0.57200
O661        O  0.18257473  0.93922414  0.35997580    -0.55700
O662        O  0.18149479  0.63163634  0.36482183    -0.55600
O663        O  0.15819962  0.01572316  0.40397222    -0.54800
O664        O  0.22875799  0.58878223  0.20116763    -0.56000
C665        C  0.21125049  0.93241465  0.20138862     0.76600
O666        O  0.14893240  0.02748595  0.25372263    -0.57200
C667        C  0.21301922  0.63173288  0.20047249     0.76600
C668        C  0.12962278  0.03225503  0.16790655     0.79000
Cd669      Cd  0.18056398  0.03371764  0.20882610     1.37500
O670        O  0.22632457  0.97407517  0.19602277    -0.56000
O671        O  0.15806428  0.51455019  0.16299195    -0.54800
C672        C  0.17405099  0.53518785  0.26845962     0.78900
O673        O  0.12457330  0.55167281  0.19186725    -0.57200
O674        O  0.18175341  0.93744315  0.20878553    -0.55700
O675        O  0.18226229  0.62911271  0.20124393    -0.55600
O676        O  0.20037393  0.04239728  0.25569429    -0.54800
C677        C  0.10158143  0.48501901  0.43686181     0.25400
C678        C  0.10370978  0.52967556  0.42025666    -0.22700
C679        C  0.08117187  0.57113265  0.42420543     0.20300
C680        C  0.05724638  0.56829375  0.44481078     0.25300
C681        C  0.05483673  0.52321571  0.46105330    -0.22700
C682        C  0.07708101  0.98156421  0.45684244     0.20200
F683        F  0.07490629  0.93742670  0.47207550    -0.12600
F684        F  0.12268965  0.94404566  0.43319648    -0.15000
F685        F  0.03632652  0.60936007  0.44891527    -0.15000
F686        F  0.08290127  0.61491914  0.40865640    -0.12600
C687        C  0.07706683  0.98189253  0.10926331     0.25400
C688        C  0.05472779  0.02348400  0.10583268    -0.22700
C689        C  0.05713899  0.56835904  0.12289313     0.20300
C690        C  0.08119588  0.57106019  0.14347096     0.25300
C691        C  0.10372011  0.02953394  0.14671718    -0.22700
C692        C  0.10155664  0.98508440  0.12932519     0.20200
F693        F  0.12263115  0.94402902  0.13228526    -0.12600
F694        F  0.07499142  0.93803114  0.09317219    -0.15000
F695        F  0.08306250  0.61477668  0.15969048    -0.15000
F696        F  0.03614732  0.60940069  0.11959082    -0.12600
C697        C  0.83613386  0.51451045  0.12702668     0.25400
C698        C  0.83721449  0.47218873  0.14539894    -0.22700
C699        C  0.86286702  0.93521897  0.14321356     0.20300
C700        C  0.88690124  0.94034412  0.12285352     0.25300
C701        C  0.88615369  0.48332415  0.10494973    -0.22700
C702        C  0.86056747  0.52026755  0.10716744     0.20200
F703        F  0.85946538  0.56221327  0.09017716    -0.12600
F704        F  0.81193628  0.55127083  0.12885367    -0.15000
F705        F  0.91094660  0.90343480  0.12055407    -0.15000
F706        F  0.86420674  0.89347692  0.16032009    -0.12600
C707        C  0.83622731  0.51858821  0.43944752     0.25400
C708        C  0.83686727  0.97648421  0.42032404    -0.22700
C709        C  0.86225041  0.93896315  0.42178319     0.20300
C710        C  0.88646588  0.94340312  0.44210800     0.25300
C711        C  0.88606184  0.98602989  0.46085553    -0.22700
C712        C  0.86073688  0.52346332  0.45940398     0.20200
F713        F  0.85994263  0.56500620  0.47726744    -0.12600
F714        F  0.81235573  0.55591959  0.43833112    -0.15000
F715        F  0.91032245  0.90612118  0.44357696    -0.15000
F716        F  0.86314158  0.89730138  0.40400945    -0.12600
C717        C  0.33904496  0.81123766  0.44291444     0.25400
C718        C  0.33828298  0.77565754  0.42040273    -0.22700
C719        C  0.36198014  0.73532631  0.41875988     0.20300
C720        C  0.38566748  0.73022285  0.43943148     0.25300
C721        C  0.38657865  0.76602288  0.46179234    -0.22700
C722        C  0.36317228  0.80672625  0.46328632     0.20200
F723        F  0.36375149  0.84213487  0.48451512    -0.12600
F724        F  0.31678369  0.85098410  0.44495396    -0.15000
F725        F  0.40749022  0.68978322  0.43787433    -0.15000
F726        F  0.36153430  0.69964627  0.39765452    -0.12600
C727        C  0.37838737  0.80841466  0.11842213     0.25400
C728        C  0.38567817  0.75949730  0.10603541    -0.22700
C729        C  0.36873012  0.71505152  0.11455586     0.20300
C730        C  0.34433363  0.71966547  0.13474434     0.25300
C731        C  0.33736039  0.76846283  0.14738516    -0.22700
C732        C  0.35471483  0.81273707  0.13924865     0.20200
F733        F  0.34796093  0.86041597  0.15083635    -0.12600
F734        F  0.39431054  0.85189565  0.11032184    -0.15000
F735        F  0.32801386  0.67627990  0.14243596    -0.15000
F736        F  0.37579381  0.66728634  0.10320295    -0.12600
C737        C  0.57737257  0.68663243  0.14705514     0.25400
C738        C  0.60440087  0.71998033  0.14605291    -0.22700
C739        C  0.60647763  0.75626124  0.12443706     0.20300
C740        C  0.58184993  0.75960521  0.10447892     0.25300
C741        C  0.55501108  0.72605336  0.10535709    -0.22700
C742        C  0.55310777  0.68919497  0.12666169     0.20200
F743        F  0.52772395  0.65566436  0.12764768    -0.12600
F744        F  0.57478910  0.65074421  0.16740488    -0.15000
F745        F  0.58391383  0.79623928  0.08444561    -0.15000
F746        F  0.63190311  0.78966030  0.12305105    -0.12600
C747        C  0.60794149  0.75882437  0.44404256     0.25400
C748        C  0.60431753  0.72572005  0.42069170    -0.22700
C749        C  0.57581015  0.69589190  0.41812013     0.20300
C750        C  0.55163193  0.69877586  0.43860511     0.25300
C751        C  0.55515434  0.73235721  0.46172753    -0.22700
C752        C  0.58344814  0.76251501  0.46416103     0.20200
F753        F  0.58717259  0.79607073  0.48595827    -0.12600
F754        F  0.63487924  0.78871171  0.44712489    -0.15000
F755        F  0.52480218  0.66850410  0.43598211    -0.15000
F756        F  0.57163955  0.66298451  0.39611556    -0.12600
O757        O  0.72880637  0.66170976  0.86569883    -0.56000
C758        C  0.71199301  0.81900087  0.86574243     0.76600
O759        O  0.64943377  0.72433594  0.81300015    -0.57200
C760        C  0.71293931  0.61956565  0.86572410     0.76600
C761        C  0.63017829  0.72264806  0.89924664     0.79000
Cd762      Cd  0.68102516  0.71938520  0.85805066     1.37500
O763        O  0.72703633  0.77653058  0.87078474    -0.56000
O764        O  0.65952308  0.73339649  0.90490513    -0.54800
C765        C  0.67482981  0.71748801  0.79834546     0.78900
O766        O  0.62423204  0.70959940  0.87432265    -0.57200
O767        O  0.68239650  0.81557545  0.85859179    -0.55700
O768        O  0.68220921  0.62371897  0.86446677    -0.55600
O769        O  0.70135077  0.71165902  0.81121405    -0.54800
O770        O  0.72939170  0.65663197  0.70088876    -0.56000
C771        C  0.71281513  0.81362782  0.70055112     0.76600
O772        O  0.62475092  0.70327846  0.69195210    -0.57200
C773        C  0.71357045  0.61446635  0.70015725     0.76600
C774        C  0.67493299  0.71647746  0.76793462     0.79000
Cd775      Cd  0.68151379  0.71464212  0.70822570     1.37500
O776        O  0.72771829  0.77083693  0.69533712    -0.56000
O777        O  0.70157509  0.71036349  0.75521176    -0.54800
C778        C  0.63038500  0.71721381  0.66731100     0.78900
O779        O  0.64959248  0.72173574  0.75313347    -0.57200
O780        O  0.68327274  0.81067834  0.70787376    -0.55700
O781        O  0.68281707  0.61863113  0.70084477    -0.55600
O782        O  0.65952641  0.72912613  0.66176464    -0.54800
N783        N  0.52001210  0.73682106  0.53378681    -0.34800
N784        N  0.47005314  0.74220629  0.57652887    -0.55400
N785        N  0.42084473  0.75737050  0.53406083    -0.34800
N786        N  0.47056129  0.74709788  0.99123332    -0.55400
C787        C  0.53701456  0.71991600  0.55604064     0.28800
C788        C  0.53721931  0.72246350  0.51092008     0.28800
C789        C  0.40174233  0.74873753  0.55636043     0.28800
C790        C  0.40209729  0.75119868  0.51120354     0.28800
C791        C  0.49694571  0.74508780  0.59266120     0.37400
C792        C  0.44442654  0.75603879  0.59280399     0.37400
C793        C  0.49760969  0.75322710  0.97567200     0.37400
C794        C  0.44515365  0.76426274  0.97583868     0.37400
C795        C  0.56534263  0.69445842  0.54723083    -0.20100
C796        C  0.56543679  0.69595589  0.51874613    -0.20100
C797        C  0.37036418  0.73744865  0.54753794    -0.20100
C798        C  0.37067889  0.73848399  0.51906013    -0.20100
C799        C  0.48834962  0.76058869  0.61932932    -0.21200
C800        C  0.45506045  0.76701054  0.61949270    -0.21200
C801        C  0.48937168  0.77449577  0.95031227    -0.21200
C802        C  0.45610201  0.78144881  0.95040798    -0.21200
C803        C  0.52879867  0.73037276  0.58407220    -0.16500
C804        C  0.52923795  0.73623670  0.98339547    -0.16500
C805        C  0.41204188  0.76072249  0.98365228    -0.16500
C806        C  0.41140193  0.75484282  0.58437661    -0.16500
H807        H  0.58419534  0.67715629  0.56002347     0.16400
H808        H  0.58438903  0.68003986  0.50535066     0.16400
H809        H  0.34921918  0.72995089  0.56019945     0.16400
H810        H  0.34990826  0.73172730  0.50570476     0.16400
H811        H  0.50428969  0.76593856  0.63697878     0.14700
H812        H  0.44042549  0.77793317  0.63735089     0.14700
H813        H  0.50557310  0.78355742  0.93339891     0.14700
H814        H  0.44160327  0.79689406  0.93357369     0.14700
H815        H  0.50006517  0.76240389  0.53434006     0.27900
H816        H  0.44413454  0.77290047  0.53453250     0.27900
O817        O  0.21380578  0.84197331  0.86767740    -0.56000
C818        C  0.22857733  0.68489128  0.86877286     0.76600
O819        O  0.29235698  0.78985515  0.81397648    -0.57200
C820        C  0.22946403  0.88393217  0.86475627     0.76600
C821        C  0.31230704  0.77940468  0.89923705     0.79000
Cd822      Cd  0.26081244  0.78261034  0.85883483     1.37500
O823        O  0.21307452  0.72809477  0.86997358    -0.56000
O824        O  0.28406966  0.79697551  0.90515349    -0.54800
C825        C  0.26761488  0.77957310  0.79925215     0.78900
O826        O  0.31694677  0.76444680  0.87438780    -0.57200
O827        O  0.25906098  0.68716617  0.86523252    -0.55700
O828        O  0.25987741  0.87933553  0.86075615    -0.55600
O829        O  0.24159760  0.77009964  0.81201794    -0.54800
O830        O  0.21455022  0.72485939  0.69599038    -0.56000
C831        C  0.22766259  0.88100999  0.70103560     0.76600
O832        O  0.29264371  0.78620946  0.75412317    -0.57200
C833        C  0.22959244  0.68225639  0.70097463     0.76600
C834        C  0.31155037  0.77322880  0.66851792     0.79000
Cd835      Cd  0.26046193  0.78137691  0.70926967     1.37500
O836        O  0.21193793  0.83893720  0.70274011    -0.56000
O837        O  0.28363613  0.75406297  0.66445369    -0.54800
C838        C  0.26753531  0.77948290  0.76887830     0.78900
O839        O  0.31610015  0.79655877  0.69150855    -0.57200
O840        O  0.25837716  0.87674185  0.70081198    -0.55700
O841        O  0.25921307  0.68546381  0.70820951    -0.55600
O842        O  0.24105140  0.77315010  0.75614048    -0.54800
O843        O  0.71425614  0.52640825  0.86978648    -0.56000
C844        C  0.72850457  0.86953893  0.86614298     0.76600
O845        O  0.79306432  0.96969891  0.81300093    -0.57200
C846        C  0.72942057  0.56831578  0.86520455     0.76600
C847        C  0.81111773  0.97212999  0.89903252     0.79000
Cd848      Cd  0.76064128  0.96773810  0.85776719     1.37500
O849        O  0.71269712  0.91239715  0.86558293    -0.56000
O850        O  0.78219649  0.48768565  0.90386128    -0.54800
C851        C  0.76768473  0.46638397  0.79812088     0.78900
O852        O  0.81679391  0.95335495  0.87502963    -0.57200
O853        O  0.75924505  0.87228923  0.86520570    -0.55700
O854        O  0.75918019  0.56378245  0.85850924    -0.55600
O855        O  0.74087709  0.96393188  0.81075673    -0.54800
O856        O  0.71350706  0.90697886  0.70113553    -0.56000
C857        C  0.73011356  0.56327524  0.70061328     0.76600
O858        O  0.79342098  0.46728382  0.75301506    -0.57200
C859        C  0.72934825  0.86415404  0.70006152     0.76600
C860        C  0.81163448  0.46720503  0.66669812     0.79000
Cd861      Cd  0.76135557  0.46310131  0.70805211     1.37500
O862        O  0.71531383  0.52119821  0.69499513    -0.56000
O863        O  0.78238378  0.98074305  0.66185671    -0.54800
C864        C  0.76785217  0.96536575  0.76771545     0.78900
O865        O  0.81777238  0.95013061  0.69072875    -0.57200
O866        O  0.75952479  0.55902107  0.70832072    -0.55700
O867        O  0.76011436  0.86706650  0.70034581    -0.55600
O868        O  0.74115898  0.46242610  0.75489548    -0.54800
N869        N  0.92069273  0.99694658  0.53304460    -0.34800
N870        N  0.97036976  0.00588592  0.99016813    -0.55400
N871        N  0.02015729  0.01366197  0.53333643    -0.34800
N872        N  0.97035210  0.00544912  0.57622549    -0.55400
C873        C  0.90303897  0.98381168  0.51030144     0.28800
C874        C  0.90308680  0.98299628  0.55546998     0.28800
C875        C  0.03893631  0.02212879  0.51077401     0.28800
C876        C  0.03886123  0.02242862  0.55605137     0.28800
C877        C  0.94397144  0.00290891  0.97348725     0.35400
C878        C  0.99640430  0.01303935  0.97355260     0.37400
C879        C  0.94394830  0.00154922  0.59277388     0.37400
C880        C  0.99630209  0.01282135  0.59303645     0.37400
C881        C  0.87382759  0.96196629  0.51842212    -0.20100
C882        C  0.87386514  0.96142213  0.54682438    -0.20100
C883        C  0.07008089  0.03554978  0.51931416    -0.20100
C884        C  0.07002593  0.03578186  0.54773928    -0.20100
C885        C  0.95323748  0.00876557  0.94610983    -0.21200
C886        C  0.98642491  0.01431169  0.94610672    -0.21200
C887        C  0.95312998  0.00703365  0.62028508    -0.21200
C888        C  0.98626667  0.01336994  0.62047409    -0.21200
C889        C  0.91193986  0.99165350  0.98230395    -0.16500
C890        C  0.91199420  0.98996607  0.58365343    -0.16500
C891        C  0.02893470  0.01945250  0.58418577    -0.16500
C892        C  0.02904918  0.01909003  0.98258939    -0.16500
H893        H  0.85451734  0.94741467  0.50523310     0.16400
H894        H  0.85457417  0.94639189  0.55965553     0.16400
H895        H  0.09067801  0.04523057  0.50642720     0.16400
H896        H  0.09058051  0.04563425  0.56078646     0.16400
H897        H  0.93786837  0.00809332  0.92789163     0.14700
H898        H  0.00134955  0.01897402  0.92785831     0.14700
H899        H  0.93773827  0.00567876  0.63845320     0.14700
H900        H  0.00113089  0.01799902  0.63883477     0.14700
H901        H  0.94183138  0.01884722  0.53329923     0.27900
H902        H  0.99666367  0.99950511  0.53320029     0.27900
O903        O  0.22750075  0.59149852  0.87058751    -0.56000
C904        C  0.21291442  0.93523132  0.86445390     0.76600
O905        O  0.12453142  0.05211401  0.87550760    -0.57200
C906        C  0.21189413  0.63444908  0.86883359     0.76600
C907        C  0.17409649  0.03550472  0.79884922     0.79000
Cd908      Cd  0.18071223  0.03552923  0.85849188     1.37500
O909        O  0.22837625  0.97756927  0.86735716    -0.56000
O910        O  0.20038979  0.54347954  0.81164716    -0.54800
C911        C  0.12964615  0.53281270  0.89920062     0.78900
O912        O  0.14909137  0.02759479  0.81355346    -0.57200
O913        O  0.18257504  0.93922393  0.85997561    -0.55700
O914        O  0.18149498  0.63163631  0.86482205    -0.55600
O915        O  0.15819978  0.01572254  0.90397232    -0.54800
O916        O  0.22875806  0.58878277  0.70116806    -0.56000
C917        C  0.21125058  0.93241509  0.70138879     0.76600
O918        O  0.14893240  0.02748582  0.75372281    -0.57200
C919        C  0.21301927  0.63173337  0.70047284     0.76600
C920        C  0.12962282  0.03225533  0.66790665     0.79000
Cd921      Cd  0.18056401  0.03371790  0.70882617     1.37500
O922        O  0.22632464  0.97407554  0.69602278    -0.56000
O923        O  0.15806452  0.51455080  0.66299204    -0.54800
C924        C  0.17405121  0.53518797  0.76845972     0.78900
O925        O  0.12457356  0.55167330  0.69186740    -0.57200
O926        O  0.18175353  0.93744358  0.70878574    -0.55700
O927        O  0.18226234  0.62911310  0.70124416    -0.55600
O928        O  0.20037387  0.04239757  0.75569432    -0.54800
C929        C  0.10158128  0.48501784  0.93686149     0.25400
C930        C  0.10370960  0.52967460  0.92025649    -0.22700
C931        C  0.08117169  0.57113159  0.92420541     0.20300
C932        C  0.05724622  0.56829248  0.94481074     0.25300
C933        C  0.05483658  0.52321429  0.96105311    -0.22700
C934        C  0.07708108  0.98156358  0.95684240     0.20200
F935        F  0.07490635  0.93742613  0.97207549    -0.12600
F936        F  0.12268993  0.94404514  0.93319667    -0.15000
F937        F  0.03632630  0.60935871  0.94891530    -0.15000
F938        F  0.08290107  0.61491829  0.90865657    -0.12600
C939        C  0.07706678  0.98189273  0.60926348     0.25400
C940        C  0.05472778  0.02348422  0.60583281    -0.22700
C941        C  0.05713886  0.56835934  0.62289361     0.20300
C942        C  0.08119588  0.57106055  0.64347136     0.25300
C943        C  0.10372016  0.02953424  0.64671729    -0.22700
C944        C  0.10155664  0.98508461  0.62932532     0.20200
F945        F  0.12263120  0.94402925  0.63228531    -0.12600
F946        F  0.07499125  0.93803131  0.59317241    -0.15000
F947        F  0.08306230  0.61477680  0.65969107    -0.15000
F948        F  0.03614708  0.60940089  0.61959147    -0.12600
C949        C  0.83613396  0.51451087  0.62702683     0.25400
C950        C  0.83721449  0.47218900  0.64539896    -0.22700
C951        C  0.86286702  0.93521905  0.64321352     0.20300
C952        C  0.88690126  0.94034414  0.62285350     0.25300
C953        C  0.88615377  0.48332463  0.60494980    -0.22700
C954        C  0.86056762  0.52026820  0.60716768     0.20200
F955        F  0.85946569  0.56221435  0.59017771    -0.12600
F956        F  0.81193653  0.55127149  0.62885405    -0.15000
F957        F  0.91094659  0.90343469  0.62055406    -0.15000
F958        F  0.86420657  0.89347691  0.66031996    -0.12600
C959        C  0.83622704  0.51858700  0.93944769     0.25400
C960        C  0.83686713  0.97648391  0.92032401    -0.22700
C961        C  0.86225017  0.93896267  0.92178318     0.20300
C962        C  0.88646569  0.94340248  0.94210797     0.25300
C963        C  0.88606176  0.98602923  0.96085547    -0.22700
C964        C  0.86073657  0.52346185  0.95940416     0.20200
F965        F  0.85994222  0.56500437  0.97726784    -0.12600
F966        F  0.81235531  0.55591822  0.93833152    -0.15000
F967        F  0.91032225  0.90612052  0.94357694    -0.15000
F968        F  0.86314117  0.89730081  0.90400948    -0.12600
C969        C  0.33904514  0.81123709  0.94291471     0.25400
C970        C  0.33828322  0.77565712  0.92040289    -0.22700
C971        C  0.36198038  0.73532583  0.91876007     0.20300
C972        C  0.38566771  0.73022231  0.93943168     0.25300
C973        C  0.38657885  0.76602230  0.96179255    -0.22700
C974        C  0.36317246  0.80672561  0.96328657     0.20200
F975        F  0.36375173  0.84213429  0.98451533    -0.12600
F976        F  0.31678389  0.85098356  0.94495432    -0.15000
F977        F  0.40749047  0.68978269  0.93787454    -0.15000
F978        F  0.36153456  0.69964574  0.89765473    -0.12600
C979        C  0.37838716  0.80841565  0.61842201     0.25400
C980        C  0.38567794  0.75949838  0.60603518    -0.22700
C981        C  0.36872999  0.71505252  0.61455559     0.20300
C982        C  0.34433359  0.71966632  0.63474412     0.25300
C983        C  0.33736037  0.76846353  0.64738512    -0.22700
C984        C  0.35471475  0.81273784  0.63924866     0.20200
F985        F  0.34796097  0.86041661  0.65083656    -0.12600
F986        F  0.39431034  0.85189668  0.61032182    -0.15000
F987        F  0.32801381  0.67628072  0.64243560    -0.15000
F988        F  0.37579358  0.66728738  0.60320255    -0.12600
C989        C  0.57737208  0.68663300  0.64705519     0.25400
C990        C  0.60440055  0.71998056  0.64605286    -0.22700
C991        C  0.60647745  0.75626110  0.62443684     0.20300
C992        C  0.58184977  0.75960518  0.60447869     0.25300
C993        C  0.55501071  0.72605373  0.60535702    -0.22700
C994        C  0.55310727  0.68919559  0.62666175     0.20200
F995        F  0.52772326  0.65566535  0.62764788    -0.12600
F996        F  0.57478839  0.65074517  0.66740510    -0.15000
F997        F  0.58391385  0.79623898  0.58444525    -0.15000
F998        F  0.63190296  0.78966011  0.62305084    -0.12600
C999        C  0.60794156  0.75882474  0.94404253     0.25400
C1000       C  0.60431760  0.72572027  0.92069173    -0.22700
C1001       C  0.57581025  0.69589203  0.91812025     0.20300
C1002       C  0.55163204  0.69877609  0.93860525     0.25300
C1003       C  0.55515447  0.73235757  0.96172762    -0.22700
C1004       C  0.58344821  0.76251557  0.96416100     0.20200
F1005       F  0.58717260  0.79607169  0.98595809    -0.12600
F1006       F  0.63487925  0.78871226  0.94712471    -0.15000
F1007       F  0.52480227  0.66850433  0.93598232    -0.15000
F1008       F  0.57163979  0.66298434  0.89611578    -0.12600
loop_ 
_geom_bond_atom_site_label_1 
_geom_bond_atom_site_label_2 
_geom_bond_distance 
_geom_bond_site_symmetry_2 
_ccdc_geom_bond_type 
O1            C4   1.265       .  A
O1           Cd6   2.465       .  S
C2           O11   1.265       .  A
C2            O7   1.266       .  A
C2           C88   1.465       .  S
O3            C9   1.268       .  A
O3           Cd6   2.535       .  S
C4           O12   1.264       .  A
C4           C90   1.464       .  S
C5           O10   1.269       .  A
C5            O8   1.266       .  A
C5          C244   1.483       .  S
Cd6          O13   2.415       .  S
Cd6          O12   2.466       .  S
Cd6          O11   2.457       .  S
Cd6           O7   2.473       .  S
Cd6          O10   2.474       .  S
Cd6           O8   2.448       .  S
C9           O13   1.260       .  A
C9           C18   1.468       .  S
O14          C17   1.264       .  A
O14         Cd19   2.465       .  S
C15          O24   1.265       .  A
C15          O20   1.267       .  A
C15         C103   1.466       .  S
O16          C22   1.269       .  A
O16         Cd19   2.475       .  S
C17          O25   1.264       .  A
C17         C101   1.464       .  S
C18          O23   1.267       .  A
C18          O21   1.260       .  A
Cd19         O26   2.448       .  S
Cd19         O25   2.472       .  S
Cd19         O24   2.454       .  S
Cd19         O20   2.476       .  S
Cd19         O23   2.536       .  S
Cd19         O21   2.416       .  S
C22          O26   1.266       .  A
C22         C234   1.481       .  S
N27          C32   1.354       .  A
N27          C31   1.353       .  A
N27          H59   1.040       .  S
N28          C35   1.352       .  A
N28          C36   1.352       .  A
N29          C34   1.353       .  A
N29          C33   1.354       .  A
N29          H60   1.039       .  S
N30          C37   1.352       .  A
N30          C38   1.351       .  A
C31          C39   1.387       .  A
C31          C47   1.416       .  A
C32          C40   1.387       .  A
C32         C300   1.416   1_554  A
C33          C41   1.388       .  A
C33          C50   1.417       .  A
C34          C42   1.387       .  A
C34         C301   1.417   1_554  A
C35          C47   1.414       .  A
C35          C43   1.386       .  A
C36          C50   1.414       .  A
C36          C44   1.386       .  A
C37          C45   1.386       .  A
C37          C48   1.413       .  A
C38          C46   1.386       .  A
C38          C49   1.413       .  A
C39          C40   1.376       .  A
C39          H51   1.082       .  S
C40          H52   1.082       .  S
C41          C42   1.376       .  A
C41          H53   1.082       .  S
C42          H54   1.082       .  S
C43          C44   1.372       .  A
C43          H55   1.082       .  S
C44          H56   1.082       .  S
C45          C46   1.373       .  A
C45          H57   1.082       .  S
C46          H58   1.082       .  S
C47         C237   1.491       .  S
C48         C247   1.493       .  S
C48         C284   1.416       .  A
C49         C217   1.490       .  S
C49         C286   1.417       .  A
C50         C224   1.488       .  S
O61          C64   1.266       .  A
O61         Cd66   2.469       .  S
C62          O71   1.263       .  A
C62          O67   1.266       .  A
C62         C150   1.466       .  S
O63          C69   1.267       .  A
O63         Cd66   2.533       .  S
C64          O72   1.265       .  A
C64         C148   1.467       .  S
C65          O70   1.268       .  A
C65          O68   1.267       .  A
C65         C214   1.479       .  S
Cd66         O73   2.412       .  S
Cd66         O72   2.470       .  S
Cd66         O71   2.462       .  S
Cd66         O67   2.480       .  S
Cd66         O70   2.460       .  S
Cd66         O68   2.456       .  S
C69          O73   1.260       .  A
C69          C82   1.467       .  S
O74          C77   1.269       .  A
O74         Cd79   2.467       .  S
C75          O84   1.262       .  A
C75          O80   1.264       .  A
C75         C161   1.466       .  S
O76          C82   1.267       .  A
O76         Cd79   2.538       .  S
C77          O85   1.267       .  A
C77         C163   1.466       .  S
C78          O83   1.268       .  A
C78          O81   1.265       .  A
C78         C227   1.473       .  S
Cd79         O86   2.412       .  S
Cd79         O85   2.450       .  S
Cd79         O84   2.474       .  S
Cd79         O80   2.479       .  S
Cd79         O83   2.474       .  S
Cd79         O81   2.452       .  S
C82          O86   1.259       .  A
O87          C90   1.267       .  A
O87        Cd596   2.469   1_545  S
C88          O97   1.264       .  A
C88          O93   1.264       .  A
O89         C599   1.267       .  A
O89         Cd92   2.539       .  S
C90          O98   1.265       .  A
C91          O96   1.268       .  A
C91         O598   1.266       .  A
C91         C204   1.477       .  S
Cd92         O99   2.411       .  S
Cd92         O97   2.469       .  S
Cd92         O93   2.468       .  S
Cd92         O96   2.472       .  S
Cd92        O591   2.469       .  S
Cd92        O602   2.452       .  S
Cd92        O598   2.444       .  S
O94         C595   1.266       .  A
O94        Cd596   2.444       .  S
C95         O593   1.267       .  A
C95         O603   1.260       .  A
C95         C612   1.468       .  S
O98        Cd596   2.452   1_545  S
O99         C599   1.260       .  A
O100        C103   1.264       .  A
O100       Cd609   2.465       .  S
C101        O110   1.265       .  A
C101        O106   1.267       .  A
O102        C612   1.268       .  A
O102       Cd105   2.539       .  S
C103        O111   1.264       .  A
C104        O613   1.269       .  A
C104        O611   1.266       .  A
C104        C194   1.477       .  S
Cd105       O112   2.409       .  S
Cd105       O110   2.449   1_565  S
Cd105       O106   2.471   1_565  S
Cd105       O604   2.465       .  S
Cd105       O615   2.476       .  S
Cd105       O613   2.476       .  S
Cd105       O611   2.441       .  S
O107        C608   1.266       .  A
O107       Cd609   2.441       .  S
C108        O606   1.268       .  A
C108        O616   1.260       .  A
C108        C599   1.468       .  S
O109        C608   1.269       .  A
O109       Cd609   2.476       .  S
O111       Cd609   2.476       .  S
O112        C612   1.260       .  A
N113        C118   1.356       .  A
N113        C117   1.356       .  A
N113        H145   1.038       .  S
N114        C121   1.351       .  A
N114        C122   1.351       .  A
N115        C120   1.356       .  A
N115        C119   1.356       .  A
N115        H146   1.033   1_455  S
N116        C123   1.351       .  A
N116        C124   1.352       .  A
C117        C125   1.387       .  A
C117        C385   1.418   1_554  A
C118        C134   1.418       .  A
C118        C126   1.387       .  A
C119        C127   1.388       .  A
C119        C388   1.421   1_554  A
C120        C135   1.421       .  A
C120        C128   1.388       .  A
C121        C133   1.415       .  A
C121        C129   1.386       .  A
C122        C136   1.417   1_655  A
C122        C130   1.387       .  A
C123        C131   1.386       .  A
C123        C134   1.416       .  A
C124        C132   1.387       .  A
C124        C135   1.417   1_655  A
C125        C126   1.372       .  A
C125        H137   1.082       .  S
C126        H138   1.082       .  S
C127        C128   1.372       .  A
C127        H139   1.082       .  S
C128        H140   1.082       .  S
C129        C130   1.370       .  A
C129        H141   1.082       .  S
C130        H142   1.082   1_655  S
C131        C132   1.370       .  A
C131        H143   1.082       .  S
C132        H144   1.082   1_655  S
C133        C207   1.489       .  S
C133        C369   1.418       .  A
C134        C701   1.489       .  S
C135        C184   1.490       .  S
C136        C681   1.489       .  S
C136        C371   1.421       .  A
O147        C150   1.266       .  A
O147       Cd656   2.473       .  S
C148        O157   1.265       .  A
C148        O153   1.267       .  A
O149        C659   1.268       .  A
O149       Cd152   2.474       .  S
C150        O158   1.264       .  A
C151        O156   1.267       .  A
C151        O658   1.260       .  A
C151        C672   1.467       .  S
Cd152       O159   2.444       .  S
Cd152       O157   2.461       .  S
Cd152       O153   2.475       .  S
Cd152       O156   2.534       .  S
Cd152       O651   2.473       .  S
Cd152       O662   2.469       .  S
Cd152       O658   2.414       .  S
O154        C655   1.260       .  A
O154       Cd656   2.414       .  S
C155        O653   1.268       .  A
C155        O663   1.266       .  A
C155        C174   1.475       .  S
O158       Cd656   2.469       .  S
O159        C659   1.266       .  A
O160        C163   1.265       .  A
O160       Cd669   2.471       .  S
C161        O170   1.265       .  A
C161        O166   1.267       .  A
O162        C672   1.267       .  A
O162       Cd165   2.534       .  S
C163        O171   1.264       .  A
C164        O673   1.268       .  A
C164        O671   1.266       .  A
C164        C187   1.476       .  S
Cd165       O172   2.412       .  S
Cd165       O170   2.458       .  S
Cd165       O166   2.473       .  S
Cd165       O664   2.471       .  S
Cd165       O675   2.470       .  S
Cd165       O673   2.476       .  S
Cd165       O671   2.443       .  S
O167        C668   1.266       .  A
O167       Cd669   2.443       .  S
C168        O666   1.267       .  A
C168        O676   1.260       .  A
C168        C655   1.467       .  S
O169        C668   1.268       .  A
O169       Cd669   2.476       .  S
O171       Cd669   2.470       .  S
O172        C672   1.260       .  A
C173        C174   1.406   1_565  A
C173        C682   1.397       .  A
C173        F684   1.358       .  S
C174        C175   1.406       .  A
C175        C176   1.400       .  A
C175        F182   1.358       .  S
C176        C177   1.406       .  A
C176        F181   1.358       .  S
C177        C640   1.489       .  S
C177        C682   1.404   1_545  A
C178        C677   1.397       .  A
C178        C681   1.404       .  A
C178        F179   1.358       .  S
F180        C677   1.358       .  S
C183        C184   1.404       .  A
C183        C188   1.397       .  A
C183        F190   1.358       .  S
C184        C689   1.407       .  A
C185        C186   1.401       .  A
C185        C688   1.407       .  A
C185        F192   1.358       .  S
C186        C691   1.406       .  A
C186        F191   1.358       .  S
C187        C188   1.406       .  A
C187        C690   1.406       .  A
C188        F189   1.358       .  S
C193        C194   1.407   1_545  A
C193        C198   1.397       .  A
C193        F200   1.358       .  S
C194        C699   1.406       .  A
C195        C196   1.401       .  A
C195        C698   1.406       .  A
C195        F202   1.358       .  S
C196        C701   1.406       .  A
C196        F201   1.358       .  S
C197        C638   1.489       .  S
C197        C198   1.404   1_565  A
C197        C700   1.406       .  A
C198        F199   1.358       .  S
C203        C208   1.398       .  A
C203        C708   1.408   1_545  A
C203        F210   1.358       .  S
C204        C205   1.407       .  A
C204        C707   1.408       .  A
C205        C206   1.400       .  A
C205        F212   1.358       .  S
C206        C207   1.406       .  A
C206        F211   1.358       .  S
C207        C712   1.404       .  A
C208        C711   1.404   1_545  A
C208        F209   1.358       .  S
C213        C214   1.408       .  A
C213        C218   1.399       .  A
C213        F220   1.358       .  S
C214        C215   1.407       .  A
C215        C216   1.398       .  A
C215        F222   1.358       .  S
C216        C217   1.406       .  A
C216        F221   1.358       .  S
C217        C218   1.406       .  A
C218        F219   1.358       .  S
C223        C224   1.406       .  A
C223        C228   1.400       .  A
C223        F230   1.358       .  S
C224        C225   1.405       .  A
C225        C226   1.399       .  A
C225        F232   1.358       .  S
C226        C227   1.406       .  A
C226        F231   1.358       .  S
C227        C228   1.404       .  A
C228        F229   1.358       .  S
C233        C234   1.408       .  A
C233        C238   1.401       .  A
C233        F240   1.358       .  S
C234        C235   1.408       .  A
C235        C236   1.398       .  A
C235        F242   1.358       .  S
C236        C237   1.405       .  A
C236        F241   1.358       .  S
C237        C238   1.406       .  A
C238        F239   1.358       .  S
C243        C244   1.409       .  A
C243        C248   1.399       .  A
C243        F250   1.358       .  S
C244        C245   1.408       .  A
C245        C246   1.401       .  A
C245        F252   1.358       .  S
C246        C247   1.407       .  A
C246        F251   1.358       .  S
C247        C248   1.405       .  A
C248        F249   1.358       .  S
O253        C256   1.265       .  A
O253       Cd258   2.465       .  S
C254        O263   1.265       .  A
C254        O259   1.266       .  A
C254        C340   1.465       .  S
O255        C261   1.268       .  A
O255       Cd258   2.535       .  S
C256        O264   1.264       .  A
C256        C342   1.464       .  S
C257        O262   1.269       .  A
C257        O260   1.266       .  A
C257        C496   1.483       .  S
Cd258       O265   2.415       .  S
Cd258       O264   2.466       .  S
Cd258       O263   2.457       .  S
Cd258       O259   2.473       .  S
Cd258       O262   2.474       .  S
Cd258       O260   2.448       .  S
C261        O265   1.260       .  A
C261        C270   1.468       .  S
O266        C269   1.264       .  A
O266       Cd271   2.465       .  S
C267        O276   1.265       .  A
C267        O272   1.267       .  A
C267        C355   1.466       .  S
O268        C274   1.269       .  A
O268       Cd271   2.475       .  S
C269        O277   1.264       .  A
C269        C353   1.464       .  S
C270        O275   1.267       .  A
C270        O273   1.260       .  A
Cd271       O278   2.448       .  S
Cd271       O277   2.472       .  S
Cd271       O276   2.454       .  S
Cd271       O272   2.476       .  S
Cd271       O275   2.536       .  S
Cd271       O273   2.416       .  S
C274        O278   1.266       .  A
C274        C486   1.481       .  S
N279        C284   1.354       .  A
N279        C283   1.353       .  A
N279        H311   1.040       .  S
N280        C287   1.352       .  A
N280        C288   1.352       .  A
N281        C286   1.353       .  A
N281        C285   1.354       .  A
N281        H312   1.039       .  S
N282        C289   1.352       .  A
N282        C290   1.351       .  A
C283        C291   1.387       .  A
C283        C299   1.416       .  A
C284        C292   1.387       .  A
C285        C293   1.388       .  A
C285        C302   1.417       .  A
C286        C294   1.387       .  A
C287        C299   1.414       .  A
C287        C295   1.386       .  A
C288        C302   1.414       .  A
C288        C296   1.386       .  A
C289        C297   1.386       .  A
C289        C300   1.413       .  A
C290        C298   1.386       .  A
C290        C301   1.413       .  A
C291        C292   1.376       .  A
C291        H303   1.082       .  S
C292        H304   1.082       .  S
C293        C294   1.376       .  A
C293        H305   1.082       .  S
C294        H306   1.082       .  S
C295        C296   1.372       .  A
C295        H307   1.082       .  S
C296        H308   1.082       .  S
C297        C298   1.373       .  A
C297        H309   1.082       .  S
C298        H310   1.082       .  S
C299        C489   1.491       .  S
C300        C499   1.493       .  S
C301        C469   1.490       .  S
C302        C476   1.488       .  S
O313        C316   1.266       .  A
O313       Cd318   2.469       .  S
C314        O323   1.263       .  A
C314        O319   1.266       .  A
C314        C402   1.466       .  S
O315        C321   1.267       .  A
O315       Cd318   2.533       .  S
C316        O324   1.265       .  A
C316        C400   1.467       .  S
C317        O322   1.268       .  A
C317        O320   1.267       .  A
C317        C466   1.479       .  S
Cd318       O325   2.412       .  S
Cd318       O324   2.470       .  S
Cd318       O323   2.462       .  S
Cd318       O319   2.480       .  S
Cd318       O322   2.460       .  S
Cd318       O320   2.456       .  S
C321        O325   1.260       .  A
C321        C334   1.467       .  S
O326        C329   1.269       .  A
O326       Cd331   2.467       .  S
C327        O336   1.262       .  A
C327        O332   1.264       .  A
C327        C413   1.466       .  S
O328        C334   1.267       .  A
O328       Cd331   2.538       .  S
C329        O337   1.267       .  A
C329        C415   1.466       .  S
C330        O335   1.268       .  A
C330        O333   1.265       .  A
C330        C479   1.473       .  S
Cd331       O338   2.412       .  S
Cd331       O337   2.450       .  S
Cd331       O336   2.474       .  S
Cd331       O332   2.479       .  S
Cd331       O335   2.474       .  S
Cd331       O333   2.452       .  S
C334        O338   1.259       .  A
O339        C342   1.267       .  A
O339       Cd848   2.469   1_545  S
C340        O349   1.264       .  A
C340        O345   1.264       .  A
O341        C851   1.267       .  A
O341       Cd344   2.539       .  S
C342        O350   1.265       .  A
C343        O348   1.268       .  A
C343        O850   1.266       .  A
C343        C456   1.477       .  S
Cd344       O843   2.469       .  S
Cd344       O351   2.411       .  S
Cd344       O854   2.452       .  S
Cd344       O349   2.469       .  S
Cd344       O345   2.468       .  S
Cd344       O348   2.472       .  S
Cd344       O850   2.444       .  S
O346        C847   1.266       .  A
O346       Cd848   2.444       .  S
C347        O845   1.267       .  A
C347        O855   1.260       .  A
C347        C864   1.468       .  S
O350       Cd848   2.452   1_545  S
O351        C851   1.260       .  A
O352        C355   1.264       .  A
O352       Cd861   2.465       .  S
C353        O362   1.265       .  A
C353        O358   1.267       .  A
O354        C864   1.268       .  A
O354       Cd357   2.539       .  S
C355        O363   1.264       .  A
C356        O865   1.269       .  A
C356        O863   1.266       .  A
C356        C446   1.477       .  S
Cd357       O856   2.465       .  S
Cd357       O364   2.409       .  S
Cd357       O867   2.476       .  S
Cd357       O362   2.449   1_565  S
Cd357       O358   2.471   1_565  S
Cd357       O865   2.476       .  S
Cd357       O863   2.441       .  S
O359        C860   1.266       .  A
O359       Cd861   2.441       .  S
C360        O858   1.268       .  A
C360        O868   1.260       .  A
C360        C851   1.468       .  S
O361        C860   1.269       .  A
O361       Cd861   2.476       .  S
O363       Cd861   2.476       .  S
O364        C864   1.260       .  A
N365        C370   1.356       .  A
N365        C369   1.356       .  A
N365        H397   1.038       .  S
N366        C373   1.351       .  A
N366        C374   1.351       .  A
N367        C372   1.356       .  A
N367        C371   1.356       .  A
N367        H398   1.033   1_455  S
N368        C375   1.351       .  A
N368        C376   1.352       .  A
C369        C377   1.387       .  A
C370        C386   1.418       .  A
C370        C378   1.387       .  A
C371        C379   1.388       .  A
C372        C387   1.421       .  A
C372        C380   1.388       .  A
C373        C385   1.415       .  A
C373        C381   1.386       .  A
C374        C388   1.417   1_655  A
C374        C382   1.387       .  A
C375        C383   1.386       .  A
C375        C386   1.416       .  A
C376        C384   1.387       .  A
C376        C387   1.417   1_655  A
C377        C378   1.372       .  A
C377        H389   1.082       .  S
C378        H390   1.082       .  S
C379        C380   1.372       .  A
C379        H391   1.082       .  S
C380        H392   1.082       .  S
C381        C382   1.370       .  A
C381        H393   1.082       .  S
C382        H394   1.082   1_655  S
C383        C384   1.370       .  A
C383        H395   1.082       .  S
C384        H396   1.082   1_655  S
C385        C459   1.489       .  S
C386        C953   1.489       .  S
C387        C436   1.490       .  S
C388        C933   1.489       .  S
O399        C402   1.266       .  A
O399       Cd908   2.473       .  S
C400        O409   1.265       .  A
C400        O405   1.267       .  A
O401        C911   1.268       .  A
O401       Cd404   2.474       .  S
C402        O410   1.264       .  A
C403        O408   1.267       .  A
C403        O910   1.260       .  A
C403        C924   1.467       .  S
Cd404       O903   2.473       .  S
Cd404       O411   2.444       .  S
Cd404       O914   2.469       .  S
Cd404       O409   2.461       .  S
Cd404       O405   2.475       .  S
Cd404       O408   2.534       .  S
Cd404       O910   2.414       .  S
O406        C907   1.260       .  A
O406       Cd908   2.414       .  S
C407        O905   1.268       .  A
C407        O915   1.266       .  A
C407        C426   1.475       .  S
O410       Cd908   2.469       .  S
O411        C911   1.266       .  A
O412        C415   1.265       .  A
O412       Cd921   2.471       .  S
C413        O422   1.265       .  A
C413        O418   1.267       .  A
O414        C924   1.267       .  A
O414       Cd417   2.534       .  S
C415        O423   1.264       .  A
C416        O925   1.268       .  A
C416        O923   1.266       .  A
C416        C439   1.476       .  S
Cd417       O916   2.471       .  S
Cd417       O424   2.412       .  S
Cd417       O927   2.470       .  S
Cd417       O422   2.458       .  S
Cd417       O418   2.473       .  S
Cd417       O925   2.476       .  S
Cd417       O923   2.443       .  S
O419        C920   1.266       .  A
O419       Cd921   2.443       .  S
C420        O918   1.267       .  A
C420        O928   1.260       .  A
C420        C907   1.467       .  S
O421        C920   1.268       .  A
O421       Cd921   2.476       .  S
O423       Cd921   2.470       .  S
O424        C924   1.260       .  A
C425        C426   1.406   1_565  A
C425        C934   1.397       .  A
C425        F936   1.358       .  S
C426        C427   1.406       .  A
C427        C428   1.400       .  A
C427        F434   1.358       .  S
C428        C429   1.406       .  A
C428        F433   1.358       .  S
C429        C892   1.489       .  S
C429        C934   1.404   1_545  A
C430        C929   1.397       .  A
C430        C933   1.404       .  A
C430        F431   1.358       .  S
F432        C929   1.358       .  S
C435        C436   1.404       .  A
C435        C440   1.397       .  A
C435        F442   1.358       .  S
C436        C941   1.407       .  A
C437        C940   1.407       .  A
C437        C438   1.401       .  A
C437        F444   1.358       .  S
C438        C943   1.406       .  A
C438        F443   1.358       .  S
C439        C942   1.406       .  A
C439        C440   1.406       .  A
C440        F441   1.358       .  S
C445        C446   1.407   1_545  A
C445        C450   1.397       .  A
C445        F452   1.358       .  S
C446        C951   1.406       .  A
C447        C950   1.406       .  A
C447        C448   1.401       .  A
C447        F454   1.358       .  S
C448        C953   1.406       .  A
C448        F453   1.358       .  S
C449        C890   1.489       .  S
C449        C952   1.406       .  A
C449        C450   1.404   1_565  A
C450        F451   1.358       .  S
C455        C960   1.408   1_545  A
C455        C460   1.398       .  A
C455        F462   1.358       .  S
C456        C959   1.408       .  A
C456        C457   1.407       .  A
C457        C458   1.400       .  A
C457        F464   1.358       .  S
C458        C459   1.406       .  A
C458        F463   1.358       .  S
C459        C964   1.404       .  A
C460        C963   1.404   1_545  A
C460        F461   1.358       .  S
C465        C466   1.408       .  A
C465        C470   1.399       .  A
C465        F472   1.358       .  S
C466        C467   1.407       .  A
C467        C468   1.398       .  A
C467        F474   1.358       .  S
C468        C469   1.406       .  A
C468        F473   1.358       .  S
C469        C470   1.406       .  A
C470        F471   1.358       .  S
C475        C476   1.406       .  A
C475        C480   1.400       .  A
C475        F482   1.358       .  S
C476        C477   1.405       .  A
C477        C478   1.399       .  A
C477        F484   1.358       .  S
C478        C479   1.406       .  A
C478        F483   1.358       .  S
C479        C480   1.404       .  A
C480        F481   1.358       .  S
C485        C486   1.408       .  A
C485        C490   1.401       .  A
C485        F492   1.358       .  S
C486        C487   1.408       .  A
C487        C488   1.398       .  A
C487        F494   1.358       .  S
C488        C489   1.405       .  A
C488        F493   1.358       .  S
C489        C490   1.406       .  A
C490        F491   1.358       .  S
C495        C496   1.409       .  A
C495        C500   1.399       .  A
C495        F502   1.358       .  S
C496        C497   1.408       .  A
C497        C498   1.401       .  A
C497        F504   1.358       .  S
C498        C499   1.407       .  A
C498        F503   1.358       .  S
C499        C500   1.405       .  A
C500        F501   1.358       .  S
O505        C508   1.265       .  A
O505       Cd510   2.465       .  S
C506        O515   1.265       .  A
C506        O511   1.266       .  A
C506        C592   1.465       .  S
O507        C513   1.268       .  A
O507       Cd510   2.535       .  S
C508        O516   1.264       .  A
C508        C594   1.464       .  S
C509        O514   1.269       .  A
C509        O512   1.266       .  A
C509        C748   1.483       .  S
Cd510       O517   2.415       .  S
Cd510       O516   2.466       .  S
Cd510       O515   2.457       .  S
Cd510       O511   2.473       .  S
Cd510       O514   2.474       .  S
Cd510       O512   2.448       .  S
C513        O517   1.260       .  A
C513        C522   1.468       .  S
O518        C521   1.264       .  A
O518       Cd523   2.465       .  S
C519        O528   1.265       .  A
C519        O524   1.267       .  A
C519        C607   1.466       .  S
O520        C526   1.269       .  A
O520       Cd523   2.475       .  S
C521        O529   1.264       .  A
C521        C605   1.464       .  S
C522        O527   1.267       .  A
C522        O525   1.260       .  A
Cd523       O530   2.448       .  S
Cd523       O529   2.472       .  S
Cd523       O528   2.454       .  S
Cd523       O524   2.476       .  S
Cd523       O527   2.536       .  S
Cd523       O525   2.416       .  S
C526        O530   1.266       .  A
C526        C738   1.481       .  S
N531        C536   1.354       .  A
N531        C535   1.353       .  A
N531        H563   1.040       .  S
N532        C539   1.352       .  A
N532        C540   1.352       .  A
N533        C538   1.353       .  A
N533        C537   1.354       .  A
N533        H564   1.039       .  S
N534        C541   1.352       .  A
N534        C542   1.351       .  A
C535        C543   1.387       .  A
C535        C551   1.416       .  A
C536        C804   1.416   1_554  A
C536        C544   1.387       .  A
C537        C545   1.388       .  A
C537        C554   1.417       .  A
C538        C805   1.417   1_554  A
C538        C546   1.387       .  A
C539        C551   1.414       .  A
C539        C547   1.386       .  A
C540        C554   1.414       .  A
C540        C548   1.386       .  A
C541        C549   1.386       .  A
C541        C552   1.413       .  A
C542        C550   1.386       .  A
C542        C553   1.413       .  A
C543        C544   1.376       .  A
C543        H555   1.082       .  S
C544        H556   1.082       .  S
C545        C546   1.376       .  A
C545        H557   1.082       .  S
C546        H558   1.082       .  S
C547        C548   1.372       .  A
C547        H559   1.082       .  S
C548        H560   1.082       .  S
C549        C550   1.373       .  A
C549        H561   1.082       .  S
C550        H562   1.082       .  S
C551        C741   1.491       .  S
C552        C751   1.493       .  S
C552        C788   1.416       .  A
C553        C721   1.490       .  S
C553        C790   1.417       .  A
C554        C728   1.488       .  S
O565        C568   1.266       .  A
O565       Cd570   2.469       .  S
C566        O575   1.263       .  A
C566        O571   1.266       .  A
C566        C654   1.466       .  S
O567        C573   1.267       .  A
O567       Cd570   2.533       .  S
C568        O576   1.265       .  A
C568        C652   1.467       .  S
C569        O574   1.268       .  A
C569        O572   1.267       .  A
C569        C718   1.479       .  S
Cd570       O577   2.412       .  S
Cd570       O576   2.470       .  S
Cd570       O575   2.462       .  S
Cd570       O571   2.480       .  S
Cd570       O574   2.460       .  S
Cd570       O572   2.456       .  S
C573        O577   1.260       .  A
C573        C586   1.467       .  S
O578        C581   1.269       .  A
O578       Cd583   2.467       .  S
C579        O588   1.262       .  A
C579        O584   1.264       .  A
C579        C665   1.466       .  S
O580        C586   1.267       .  A
O580       Cd583   2.538       .  S
C581        O589   1.267       .  A
C581        C667   1.466       .  S
C582        O587   1.268       .  A
C582        O585   1.265       .  A
C582        C731   1.473       .  S
Cd583       O590   2.412       .  S
Cd583       O589   2.450       .  S
Cd583       O588   2.474       .  S
Cd583       O584   2.479       .  S
Cd583       O587   2.474       .  S
Cd583       O585   2.452       .  S
C586        O590   1.259       .  A
O591        C594   1.267       .  A
C592        O601   1.264       .  A
C592        O597   1.264       .  A
O593       Cd596   2.539       .  S
C594        O602   1.265       .  A
C595        O600   1.268       .  A
C595        C708   1.477       .  S
Cd596       O603   2.411       .  S
Cd596       O601   2.469       .  S
Cd596       O597   2.468       .  S
Cd596       O600   2.472       .  S
O604        C607   1.264       .  A
C605        O614   1.265       .  A
C605        O610   1.267       .  A
O606       Cd609   2.539       .  S
C607        O615   1.264       .  A
C608        C698   1.477       .  S
Cd609       O616   2.409       .  S
Cd609       O614   2.449       .  S
Cd609       O610   2.471       .  S
N617        C622   1.356       .  A
N617        C621   1.356       .  A
N617        H649   1.038   1_565  S
N618        C625   1.351       .  A
N618        C626   1.351       .  A
N619        C624   1.356       .  A
N619        C623   1.356       .  A
N619        H650   1.033   1_445  S
N620        C627   1.351       .  A
N620        C628   1.352       .  A
C621        C629   1.387       .  A
C621        C889   1.418   1_554  A
C622        C638   1.418       .  A
C622        C630   1.387       .  A
C623        C631   1.388       .  A
C623        C892   1.421   1_554  A
C624        C639   1.421       .  A
C624        C632   1.388       .  A
C625        C637   1.415   1_545  A
C625        C633   1.386       .  A
C626        C640   1.417   1_655  A
C626        C634   1.387       .  A
C627        C635   1.386       .  A
C627        C638   1.416   1_545  A
C628        C636   1.387       .  A
C628        C639   1.417   1_655  A
C629        C630   1.372       .  A
C629        H641   1.082       .  S
C630        H642   1.082       .  S
C631        C632   1.372       .  A
C631        H643   1.082       .  S
C632        H644   1.082       .  S
C633        C634   1.370       .  A
C633        H645   1.082       .  S
C634        H646   1.082   1_655  S
C635        C636   1.370       .  A
C635        H647   1.082       .  S
C636        H648   1.082   1_655  S
C637        C711   1.489       .  S
C637        C873   1.418       .  A
C639        C688   1.490       .  S
C640        C875   1.421       .  A
O651        C654   1.266       .  A
C652        O661   1.265       .  A
C652        O657   1.267       .  A
O653       Cd656   2.474       .  S
C654        O662   1.264       .  A
C655        O660   1.267       .  A
Cd656       O663   2.444       .  S
Cd656       O661   2.461   1_545  S
Cd656       O657   2.475   1_545  S
Cd656       O660   2.534       .  S
C659        C678   1.475       .  S
O664        C667   1.265       .  A
C665        O674   1.265       .  A
C665        O670   1.267       .  A
O666       Cd669   2.534       .  S
C667        O675   1.264       .  A
C668        C691   1.476       .  S
Cd669       O676   2.412       .  S
Cd669       O674   2.458   1_545  S
Cd669       O670   2.473   1_545  S
C677        C678   1.406       .  A
C678        C679   1.406       .  A
C679        C680   1.400       .  A
C679        F686   1.358       .  S
C680        C681   1.406       .  A
C680        F685   1.358       .  S
C682        F683   1.358       .  S
C687        C688   1.404   1_565  A
C687        C692   1.397       .  A
C687        F694   1.358       .  S
C689        C690   1.401       .  A
C689        F696   1.358       .  S
C690        F695   1.358       .  S
C691        C692   1.406   1_545  A
C692        F693   1.358       .  S
C697        C698   1.407       .  A
C697        C702   1.397       .  A
C697        F704   1.358       .  S
C699        C700   1.401       .  A
C699        F706   1.358       .  S
C700        F705   1.358       .  S
C701        C702   1.404       .  A
C702        F703   1.358       .  S
C707        C712   1.398       .  A
C707        F714   1.358       .  S
C708        C709   1.407       .  A
C709        C710   1.400       .  A
C709        F716   1.358       .  S
C710        C711   1.406       .  A
C710        F715   1.358       .  S
C712        F713   1.358       .  S
C717        C718   1.408       .  A
C717        C722   1.399       .  A
C717        F724   1.358       .  S
C718        C719   1.407       .  A
C719        C720   1.398       .  A
C719        F726   1.358       .  S
C720        C721   1.406       .  A
C720        F725   1.358       .  S
C721        C722   1.406       .  A
C722        F723   1.358       .  S
C727        C728   1.406       .  A
C727        C732   1.400       .  A
C727        F734   1.358       .  S
C728        C729   1.405       .  A
C729        C730   1.399       .  A
C729        F736   1.358       .  S
C730        C731   1.406       .  A
C730        F735   1.358       .  S
C731        C732   1.404       .  A
C732        F733   1.358       .  S
C737        C738   1.408       .  A
C737        C742   1.401       .  A
C737        F744   1.358       .  S
C738        C739   1.408       .  A
C739        C740   1.398       .  A
C739        F746   1.358       .  S
C740        C741   1.405       .  A
C740        F745   1.358       .  S
C741        C742   1.406       .  A
C742        F743   1.358       .  S
C747        C748   1.409       .  A
C747        C752   1.399       .  A
C747        F754   1.358       .  S
C748        C749   1.408       .  A
C749        C750   1.401       .  A
C749        F756   1.358       .  S
C750        C751   1.407       .  A
C750        F755   1.358       .  S
C751        C752   1.405       .  A
C752        F753   1.358       .  S
O757        C760   1.265       .  A
O757       Cd762   2.465       .  S
C758        O767   1.265       .  A
C758        O763   1.266       .  A
C758        C844   1.465       .  S
O759        C765   1.268       .  A
O759       Cd762   2.535       .  S
C760        O768   1.264       .  A
C760        C846   1.464       .  S
C761        O766   1.269       .  A
C761        O764   1.266       .  A
C761       C1000   1.483       .  S
Cd762       O769   2.415       .  S
Cd762       O768   2.466       .  S
Cd762       O767   2.457       .  S
Cd762       O763   2.473       .  S
Cd762       O766   2.474       .  S
Cd762       O764   2.448       .  S
C765        O769   1.260       .  A
C765        C774   1.468       .  S
O770        C773   1.264       .  A
O770       Cd775   2.465       .  S
C771        O780   1.265       .  A
C771        O776   1.267       .  A
C771        C859   1.466       .  S
O772        C778   1.269       .  A
O772       Cd775   2.475       .  S
C773        O781   1.264       .  A
C773        C857   1.464       .  S
C774        O779   1.267       .  A
C774        O777   1.260       .  A
Cd775       O782   2.448       .  S
Cd775       O781   2.472       .  S
Cd775       O780   2.454       .  S
Cd775       O776   2.476       .  S
Cd775       O779   2.536       .  S
Cd775       O777   2.416       .  S
C778        O782   1.266       .  A
C778        C990   1.481       .  S
N783        C788   1.354       .  A
N783        C787   1.353       .  A
N783        H815   1.040       .  S
N784        C791   1.352       .  A
N784        C792   1.352       .  A
N785        C790   1.353       .  A
N785        C789   1.354       .  A
N785        H816   1.039       .  S
N786        C793   1.352       .  A
N786        C794   1.351       .  A
C787        C795   1.387       .  A
C787        C803   1.416       .  A
C788        C796   1.387       .  A
C789        C797   1.388       .  A
C789        C806   1.417       .  A
C790        C798   1.387       .  A
C791        C803   1.414       .  A
C791        C799   1.386       .  A
C792        C806   1.414       .  A
C792        C800   1.386       .  A
C793        C801   1.386       .  A
C793        C804   1.413       .  A
C794        C802   1.386       .  A
C794        C805   1.413       .  A
C795        C796   1.376       .  A
C795        H807   1.082       .  S
C796        H808   1.082       .  S
C797        C798   1.376       .  A
C797        H809   1.082       .  S
C798        H810   1.082       .  S
C799        C800   1.372       .  A
C799        H811   1.082       .  S
C800        H812   1.082       .  S
C801        C802   1.373       .  A
C801        H813   1.082       .  S
C802        H814   1.082       .  S
C803        C993   1.491       .  S
C804       C1003   1.493       .  S
C805        C973   1.490       .  S
C806        C980   1.488       .  S
O817        C820   1.266       .  A
O817       Cd822   2.469       .  S
C818        O827   1.263       .  A
C818        O823   1.266       .  A
C818        C906   1.466       .  S
O819        C825   1.267       .  A
O819       Cd822   2.533       .  S
C820        O828   1.265       .  A
C820        C904   1.467       .  S
C821        O826   1.268       .  A
C821        O824   1.267       .  A
C821        C970   1.479       .  S
Cd822       O829   2.412       .  S
Cd822       O828   2.470       .  S
Cd822       O827   2.462       .  S
Cd822       O823   2.480       .  S
Cd822       O826   2.460       .  S
Cd822       O824   2.456       .  S
C825        O829   1.260       .  A
C825        C838   1.467       .  S
O830        C833   1.269       .  A
O830       Cd835   2.467       .  S
C831        O840   1.262       .  A
C831        O836   1.264       .  A
C831        C917   1.466       .  S
O832        C838   1.267       .  A
O832       Cd835   2.538       .  S
C833        O841   1.267       .  A
C833        C919   1.466       .  S
C834        O839   1.268       .  A
C834        O837   1.265       .  A
C834        C983   1.473       .  S
Cd835       O842   2.412       .  S
Cd835       O841   2.450       .  S
Cd835       O840   2.474       .  S
Cd835       O836   2.479       .  S
Cd835       O839   2.474       .  S
Cd835       O837   2.452       .  S
C838        O842   1.259       .  A
O843        C846   1.267       .  A
C844        O853   1.264       .  A
C844        O849   1.264       .  A
O845       Cd848   2.539       .  S
C846        O854   1.265       .  A
C847        O852   1.268       .  A
C847        C960   1.477       .  S
Cd848       O855   2.411       .  S
Cd848       O853   2.469       .  S
Cd848       O849   2.468       .  S
Cd848       O852   2.472       .  S
O856        C859   1.264       .  A
C857        O866   1.265       .  A
C857        O862   1.267       .  A
O858       Cd861   2.539       .  S
C859        O867   1.264       .  A
C860        C950   1.477       .  S
Cd861       O868   2.409       .  S
Cd861       O866   2.449       .  S
Cd861       O862   2.471       .  S
N869        C874   1.356       .  A
N869        C873   1.356       .  A
N869        H901   1.038   1_565  S
N870        C877   1.351       .  A
N870        C878   1.351       .  A
N871        C876   1.356       .  A
N871        C875   1.356       .  A
N871        H902   1.033   1_445  S
N872        C879   1.351       .  A
N872        C880   1.352       .  A
C873        C881   1.387       .  A
C874        C890   1.418       .  A
C874        C882   1.387       .  A
C875        C883   1.388       .  A
C876        C891   1.421       .  A
C876        C884   1.388       .  A
C877        C889   1.415   1_545  A
C877        C885   1.386       .  A
C878        C892   1.417   1_655  A
C878        C886   1.387       .  A
C879        C887   1.386       .  A
C879        C890   1.416   1_545  A
C880        C888   1.387       .  A
C880        C891   1.417   1_655  A
C881        C882   1.372       .  A
C881        H893   1.082       .  S
C882        H894   1.082       .  S
C883        C884   1.372       .  A
C883        H895   1.082       .  S
C884        H896   1.082       .  S
C885        C886   1.370       .  A
C885        H897   1.082       .  S
C886        H898   1.082   1_655  S
C887        C888   1.370       .  A
C887        H899   1.082       .  S
C888        H900   1.082   1_655  S
C889        C963   1.489       .  S
C891        C940   1.490       .  S
O903        C906   1.266       .  A
C904        O913   1.265       .  A
C904        O909   1.267       .  A
O905       Cd908   2.474       .  S
C906        O914   1.264       .  A
C907        O912   1.267       .  A
Cd908       O915   2.444       .  S
Cd908       O913   2.461   1_545  S
Cd908       O909   2.475   1_545  S
Cd908       O912   2.534       .  S
C911        C930   1.475       .  S
O916        C919   1.265       .  A
C917        O926   1.265       .  A
C917        O922   1.267       .  A
O918       Cd921   2.534       .  S
C919        O927   1.264       .  A
C920        C943   1.476       .  S
Cd921       O928   2.412       .  S
Cd921       O926   2.458   1_545  S
Cd921       O922   2.473   1_545  S
C929        C930   1.406       .  A
C930        C931   1.406       .  A
C931        C932   1.400       .  A
C931        F938   1.358       .  S
C932        C933   1.406       .  A
C932        F937   1.358       .  S
C934        F935   1.358       .  S
C939        C940   1.404   1_565  A
C939        C944   1.397       .  A
C939        F946   1.358       .  S
C941        C942   1.401       .  A
C941        F948   1.358       .  S
C942        F947   1.358       .  S
C943        C944   1.406   1_545  A
C944        F945   1.358       .  S
C949        C950   1.407       .  A
C949        C954   1.397       .  A
C949        F956   1.358       .  S
C951        C952   1.401       .  A
C951        F958   1.358       .  S
C952        F957   1.358       .  S
C953        C954   1.404       .  A
C954        F955   1.358       .  S
C959        C964   1.398       .  A
C959        F966   1.358       .  S
C960        C961   1.407       .  A
C961        C962   1.400       .  A
C961        F968   1.358       .  S
C962        C963   1.406       .  A
C962        F967   1.358       .  S
C964        F965   1.358       .  S
C969        C970   1.408       .  A
C969        C974   1.399       .  A
C969        F976   1.358       .  S
C970        C971   1.407       .  A
C971        C972   1.398       .  A
C971        F978   1.358       .  S
C972        C973   1.406       .  A
C972        F977   1.358       .  S
C973        C974   1.406       .  A
C974        F975   1.358       .  S
C979        C980   1.406       .  A
C979        C984   1.400       .  A
C979        F986   1.358       .  S
C980        C981   1.405       .  A
C981        C982   1.399       .  A
C981        F988   1.358       .  S
C982        C983   1.406       .  A
C982        F987   1.358       .  S
C983        C984   1.404       .  A
C984        F985   1.358       .  S
C989        C990   1.408       .  A
C989        C994   1.401       .  A
C989        F996   1.358       .  S
C990        C991   1.408       .  A
C991        C992   1.398       .  A
C991        F998   1.358       .  S
C992        C993   1.405       .  A
C992        F997   1.358       .  S
C993        C994   1.406       .  A
C994        F995   1.358       .  S
C999       C1000   1.409       .  A
C999       C1004   1.399       .  A
C999       F1006   1.358       .  S
C1000      C1001   1.408       .  A
C1001      C1002   1.401       .  A
C1001      F1008   1.358       .  S
C1002      C1003   1.407       .  A
C1002      F1007   1.358       .  S
C1003      C1004   1.405       .  A
C1004      F1005   1.358       .  S
