geometry optimzed in LAMMPS
_audit_creation_date              2020-11-30 
_audit_creation_method            'lammps2cif' 
_symmetry_space_group_name_H-M    'P1' 
_symmetry_Int_Tables_number       1 
_symmetry_cell_setting            triclinic 
loop_ 
_symmetry_equiv_pos_as_xyz 
  x,y,z 
_cell_length_a                    24.60520745 
_cell_length_b                    48.5661808099453 
_cell_length_c                    35.1663000482367 
_cell_angle_alpha                 90.16789373543142 
_cell_angle_beta                  90.10291762135243 
_cell_angle_gamma                 89.98619387543859 
loop_ 
_atom_site_label 
_atom_site_type_symbol 
_atom_site_fract_x 
_atom_site_fract_y 
_atom_site_fract_z 
_atom_site_charge 
N1          N  0.08356694  0.00001756  0.99975506    -0.36200
N2          N  0.00046500  0.04241048  0.99537236    -0.56800
N3          N  0.91724953  0.00005206  0.99955427    -0.36200
N4          N  0.00117814  0.45784456  0.99573313    -0.56800
C5          C  0.11363778  0.02211469  0.98964640     0.27400
C6          C  0.11509162  0.47735119  0.98967381     0.27400
C7          C  0.88661456  0.02236058  0.99121224     0.27400
C8          C  0.88742229  0.47831067  0.98988446     0.27400
C9          C  0.04457991  0.05846851  0.00115783     0.36000
C10         C  0.95664096  0.05848426  0.00197602     0.36000
C11         C  0.04487341  0.44181552  0.00286809     0.36000
C12         C  0.95688201  0.44211919  0.00221466     0.36000
C13         C  0.16355523  0.01340167  0.97588112    -0.21500
C14         C  0.16579282  0.48520722  0.97635174    -0.21500
C15         C  0.83600220  0.01394342  0.97825971    -0.21500
C16         C  0.83614288  0.48676909  0.97837692    -0.21500
C17         C  0.02874138  0.08490100  0.01114512    -0.22500
C18         C  0.97296090  0.08491255  0.01166348    -0.22500
C19         C  0.02828764  0.41574384  0.01382953    -0.22500
C20         C  0.97245842  0.41590771  0.01326462    -0.22500
C21         C  0.09881989  0.04992447  0.99543961    -0.17900
C22         C  0.09937279  0.44987199  0.99697768    -0.17900
C23         C  0.90272149  0.45059007  0.99585837    -0.17900
C24         C  0.90214327  0.05007708  0.99698758    -0.17900
H25         H  0.19676606  0.02614169  0.96609045     0.15000
H26         H  0.19916039  0.47192734  0.96820777     0.15000
H27         H  0.80229775  0.02687009  0.96973781     0.15000
H28         H  0.80168199  0.47389406  0.97122974     0.15000
H29         H  0.05462474  0.10238680  0.01723232     0.13300
H30         H  0.94736368  0.10242166  0.01818563     0.13300
H31         H  0.05372667  0.39831877  0.02096638     0.13300
H32         H  0.94632721  0.39865435  0.01988121     0.13300
H33         H  0.04755274  0.00054608  0.01511003     0.26600
H34         H  0.95421115  0.00028085  0.01382438     0.26600
N35         N  0.08184395  0.00111183  0.48634328    -0.36200
N36         N  0.99953979  0.45819386  0.49056863    -0.56800
N37         N  0.91549053  0.00039312  0.48762332    -0.36200
N38         N  0.99802766  0.04306722  0.48575947    -0.56800
C39         C  0.11320453  0.47893196  0.49668113     0.27400
C40         C  0.11204642  0.02390735  0.49298571     0.27400
C41         C  0.88508118  0.47753361  0.49580920     0.27400
C42         C  0.88511180  0.02289896  0.49562685     0.27400
C43         C  0.04402654  0.44235643  0.48500616     0.36000
C44         C  0.95596225  0.44186442  0.48415129     0.36000
C45         C  0.04154955  0.05927756  0.47915588     0.36000
C46         C  0.95361037  0.05893016  0.48046146     0.36000
C47         C  0.16410944  0.48750272  0.50893803    -0.21500
C48         C  0.16295033  0.01627727  0.50632112    -0.21500
C49         C  0.83401491  0.48537912  0.50848063    -0.21500
C50         C  0.83527910  0.01474536  0.51013573    -0.21500
C51         C  0.02865170  0.41577758  0.47537321    -0.22500
C52         C  0.97282035  0.41546998  0.47481127    -0.22500
C53         C  0.02474774  0.08563604  0.46969304    -0.22500
C54         C  0.96892631  0.08541035  0.47049629    -0.22500
C55         C  0.09823135  0.45113896  0.49065571    -0.17900
C56         C  0.09599295  0.05129282  0.48532558    -0.17900
C57         C  0.89984803  0.05048713  0.48805117    -0.17900
C58         C  0.90124612  0.44997964  0.48910462    -0.17900
H59         H  0.19832359  0.47469877  0.51679401     0.15000
H60         H  0.19659374  0.02963694  0.51365695     0.15000
H61         H  0.80038778  0.47209084  0.51592159     0.15000
H62         H  0.80183879  0.02782246  0.51874270     0.15000
H63         H  0.05490849  0.39837283  0.46965479     0.13300
H64         H  0.94753380  0.39777079  0.46865603     0.13300
H65         H  0.05004811  0.10334304  0.46381383     0.13300
H66         H  0.94268240  0.10289769  0.46531456     0.13300
H67         H  0.04488531  0.00044454  0.47212909     0.26600
H68         H  0.95161691  0.00014823  0.47242290     0.26600
O69         O  0.38783668  0.21586116  0.01826543    -0.78100
C70         C  0.49464211  0.25028821  0.10460599     0.83000
O71         O  0.43434144  0.30827021  0.97640031    -0.79200
O72         O  0.61301611  0.28492262  0.02152595    -0.80700
O73         O  0.57167089  0.19383887  0.97702101    -0.80500
O74         O  0.43546138  0.19163179  0.97624120    -0.79100
Zn75       Zn  0.43336660  0.24978618  0.02896236     1.55700
O76         O  0.61378523  0.21660353  0.02344024    -0.80500
Cd77       Cd  0.50224783  0.21637291  0.96646327     1.59700
Cd78       Cd  0.50076780  0.28334097  0.96551214     1.59600
O79         O  0.50198774  0.22628691  0.90945176    -0.80500
O80         O  0.49954810  0.25010844  0.99884277    -1.91000
Cd81       Cd  0.56502504  0.25080905  0.03258452     1.59900
O82         O  0.49752940  0.27209274  0.90884936    -0.80400
O83         O  0.54143761  0.25118018  0.08907109    -0.79100
C84         C  0.39311925  0.30499431  0.99784363     0.83400
C85         C  0.39367046  0.19466382  0.99717480     0.83100
O86         O  0.45137230  0.24966676  0.08470907    -0.78100
C87         C  0.61123337  0.19645166  0.00019475     0.83900
O88         O  0.38809993  0.28361960  0.01848574    -0.78100
C89         C  0.49909457  0.24901124  0.89155246     0.84000
C90         C  0.61073575  0.30421546  0.99705251     0.84400
O91         O  0.57115057  0.30608466  0.97372179    -0.80600
O92         O  0.38848399  0.28630149  0.47637995    -0.78100
C93         C  0.49131909  0.24642813  0.39095643     0.83000
O94         O  0.42866919  0.19281372  0.51737447    -0.79200
O95         O  0.61016396  0.21549030  0.47550789    -0.80700
O96         O  0.57017163  0.30641683  0.51726177    -0.80500
O97         O  0.43446945  0.30901583  0.52091680    -0.79100
Zn98       Zn  0.43095758  0.25162869  0.46611134     1.55700
O99         O  0.60846484  0.28420831  0.46876353    -0.80500
Cd100      Cd  0.50119718  0.28365179  0.52991225     1.59700
Cd101      Cd  0.49622303  0.21659279  0.52926113     1.59600
O102        O  0.50278792  0.27268709  0.58697527    -0.80500
O103        O  0.49669040  0.25025281  0.49673248    -1.91000
Cd104      Cd  0.56160018  0.24887946  0.46280486     1.59900
O105        O  0.49453368  0.22700379  0.58632652    -0.80400
O106        O  0.53788666  0.24462419  0.40665302    -0.79100
C107        C  0.38750424  0.19697364  0.49608341     0.83400
C108        C  0.39397432  0.30701845  0.49839206     0.83100
O109        O  0.44823412  0.25022634  0.41025940    -0.78100
C110        C  0.60727362  0.30438746  0.49207016     0.83900
O111        O  0.38321776  0.21881087  0.47633876    -0.78100
C112        C  0.49875829  0.24973517  0.60433260     0.84000
C113        C  0.60577921  0.19519287  0.49819064     0.84400
O114        O  0.56486957  0.19271931  0.52011191    -0.80600
C115        C  0.47432106  0.26916803  0.78872663    -0.27200
C116        C  0.49776426  0.24692969  0.76916036     0.02400
C117        C  0.52138860  0.22529055  0.79005309     0.30500
C118        C  0.52114523  0.22615334  0.82988368    -0.19000
C119        C  0.49787881  0.24847979  0.84948356    -0.28400
C120        C  0.47410169  0.27005571  0.82846271     0.44500
C121        C  0.49845762  0.24716560  0.72698581     0.05700
O122        O  0.54752889  0.20408033  0.77179117    -0.56900
H123        H  0.54030603  0.20953870  0.84544330     0.18700
O124        O  0.45021456  0.29206372  0.84636975    -0.63600
H125        H  0.45579416  0.28591027  0.77305181     0.17100
C126        C  0.47707809  0.22515516  0.70551061     0.29400
C127        C  0.47794574  0.22617442  0.66574034    -0.24500
C128        C  0.49883832  0.24925721  0.64657343    -0.23800
C129        C  0.51960944  0.27142331  0.66823244     0.40800
C130        C  0.51923050  0.27022985  0.70797877    -0.26300
O131        O  0.45416482  0.20280076  0.72303109    -0.58100
H132        H  0.46120992  0.20899728  0.64986617     0.16400
O133        O  0.54073168  0.29432752  0.65098487    -0.59600
H134        H  0.53565313  0.28737849  0.72408960     0.14900
H135        H  0.41190932  0.28648026  0.85049418     0.46700
H136        H  0.41679961  0.20865572  0.72981429     0.42100
H137        H  0.58014356  0.29052119  0.64832424     0.45600
H138        H  0.52579843  0.18735388  0.77729103     0.37100
C139        C  0.43882854  0.24421069  0.20532340    -0.27200
C140        C  0.48644861  0.24661482  0.22703359     0.02400
C141        C  0.53634799  0.25084983  0.20840025     0.30500
C142        C  0.53825701  0.25211486  0.16873996    -0.19000
C143        C  0.49070313  0.24961086  0.14676327    -0.28400
C144        C  0.44045484  0.24596625  0.16562154     0.44500
C145        C  0.48397633  0.24495730  0.26907939     0.05700
O146        O  0.58359901  0.25395275  0.22872673    -0.56900
H147        H  0.57731349  0.25516151  0.15522592     0.18700
O148        O  0.39275346  0.24338997  0.14568392    -0.63600
H149        H  0.40016879  0.24070100  0.21917917     0.17100
C150        C  0.44895848  0.26214733  0.29012029     0.29400
C151        C  0.45061406  0.26178659  0.32989642    -0.24500
C152        C  0.48716179  0.24458759  0.34920762    -0.23800
C153        C  0.52033123  0.22646790  0.32821843     0.40800
C154        C  0.51850355  0.22672196  0.28847740    -0.26300
O155        O  0.41569228  0.28067193  0.27209614    -0.58100
H156        H  0.42475940  0.27581003  0.34565242     0.16400
O157        O  0.55479080  0.20851655  0.34623816    -0.59600
H158        H  0.54468256  0.21286782  0.27270402     0.14900
H159        H  0.37685020  0.26216512  0.14526571     0.46700
H160        H  0.37851638  0.27296021  0.27433421     0.42100
H161        H  0.53286091  0.19168100  0.35065841     0.45600
H162        H  0.58506314  0.27375833  0.23557915     0.37100
C163        C  0.31031005  0.37090255  0.52273630    -0.27200
C164        C  0.27015102  0.36999144  0.49441925     0.02400
C165        C  0.27131861  0.34871868  0.46725565     0.30500
C166        C  0.31189991  0.32858258  0.46883399    -0.19000
C167        C  0.35214520  0.32916564  0.49735752    -0.28400
C168        C  0.35125948  0.35086513  0.52427266     0.44500
C169        C  0.22645602  0.39095149  0.49379954     0.05700
O170        O  0.23245467  0.34721201  0.43931163    -0.56900
H171        H  0.31156475  0.31237017  0.44761538     0.18700
O172        O  0.38919987  0.35238958  0.55281636    -0.63600
H173        H  0.30993491  0.38727082  0.54373901     0.17100
C174        C  0.19000850  0.39350912  0.52443564     0.29400
C175        C  0.14786875  0.41286331  0.52288306    -0.24500
C176        C  0.14200300  0.43007642  0.49120430    -0.23800
C177        C  0.17874319  0.42776015  0.46075026     0.40800
C178        C  0.22039000  0.40813041  0.46203662    -0.26300
O179        O  0.19409292  0.37644828  0.55532159    -0.58100
H180        H  0.11981687  0.41456792  0.54648797     0.16400
O181        O  0.17348441  0.44425233  0.42936255    -0.59600
H182        H  0.24819157  0.40636941  0.43829213     0.14900
H183        H  0.41774830  0.36494624  0.54311913     0.46700
H184        H  0.21327133  0.38741620  0.57502245     0.42100
H185        H  0.19765940  0.46021594  0.43426320     0.45600
H186        H  0.20196855  0.33678934  0.45076545     0.37100
C187        C  0.78393792  0.40464173  0.45699821    -0.27200
C188        C  0.77516662  0.38846424  0.48944830     0.02400
C189        C  0.80889203  0.39216147  0.52149735     0.30500
C190        C  0.85036464  0.41194573  0.52087738    -0.19000
C191        C  0.85843300  0.42838111  0.48867902    -0.28400
C192        C  0.82515293  0.42454664  0.45652252     0.44500
C193        C  0.73129759  0.36750265  0.48940819     0.05700
O194        O  0.80284544  0.37578333  0.55293361    -0.56900
H195        H  0.87612143  0.41460921  0.54563765     0.18700
O196        O  0.83235228  0.44035386  0.42467916    -0.63600
H197        H  0.75842401  0.40196324  0.43211685     0.17100
C198        C  0.68844981  0.36879827  0.51577958     0.29400
C199        C  0.64860346  0.34823217  0.51620063    -0.24500
C200        C  0.65005367  0.32611410  0.49022013    -0.23800
C201        C  0.69260745  0.32525586  0.46319278     0.40800
C202        C  0.73242871  0.34591319  0.46286621    -0.26300
O203        O  0.68496068  0.39020553  0.54117951    -0.58100
H204        H  0.61639125  0.34972039  0.53705948     0.16400
O205        O  0.69575152  0.30449122  0.43677395    -0.59600
H206        H  0.76495676  0.34480492  0.44218250     0.14900
H207        H  0.86123289  0.43090875  0.40993615     0.46700
H208        H  0.66343367  0.40456856  0.52797339     0.42100
H209        H  0.72029870  0.29056188  0.44817373     0.45600
H210        H  0.78690282  0.38788147  0.57275811     0.37100
C211        C  0.68926602  0.13115621  0.52175243    -0.27200
C212        C  0.73267585  0.13379861  0.49625705     0.02400
C213        C  0.73477632  0.15677639  0.47211626     0.30500
C214        C  0.69353728  0.17655816  0.47331662    -0.19000
C215        C  0.64940112  0.17395108  0.49849686    -0.28400
C216        C  0.64769656  0.15086740  0.52292760     0.44500
C217        C  0.77528202  0.11232511  0.49455742     0.05700
O218        O  0.77709674  0.16009378  0.44721092    -0.56900
H219        H  0.69622563  0.19397003  0.45423455     0.18700
O220        O  0.60593261  0.14732270  0.54821953    -0.63600
H221        H  0.68714246  0.11347596  0.54041281     0.17100
C222        C  0.80792492  0.10647612  0.52645370     0.29400
C223        C  0.84878854  0.08648629  0.52390775    -0.24500
C224        C  0.85689382  0.07185029  0.48997480    -0.23800
C225        C  0.82389218  0.07739986  0.45824656     0.40800
C226        C  0.78364748  0.09769288  0.46056623    -0.26300
O227        O  0.80147223  0.12093045  0.55970600    -0.58100
H228        H  0.87414966  0.08230717  0.54844114     0.16400
O229        O  0.83139670  0.06342330  0.42472495    -0.59600
H230        H  0.75863619  0.10193058  0.43587341     0.14900
H231        H  0.57914087  0.13553216  0.53475888     0.46700
H232        H  0.78016778  0.10864575  0.57651592     0.42100
H233        H  0.80858492  0.04666995  0.42687678     0.45600
H234        H  0.80544398  0.17009977  0.46181257     0.37100
C235        C  0.20623553  0.10092089  0.45458477    -0.27200
C236        C  0.22085352  0.11293800  0.48948483     0.02400
C237        C  0.19359607  0.10498566  0.52286363     0.30500
C238        C  0.15226703  0.08524005  0.52102498    -0.19000
C239        C  0.13829726  0.07297680  0.48624843    -0.28400
C240        C  0.16532165  0.08093601  0.45286498     0.44500
C241        C  0.26393269  0.13411682  0.49070412     0.05700
O242        O  0.20582566  0.11716412  0.55708136    -0.56900
H243        H  0.13132574  0.07927943  0.54679910     0.18700
O244        O  0.15255236  0.06895178  0.41864302    -0.63600
H245        H  0.22697228  0.10689138  0.42873292     0.17100
C246        C  0.31169786  0.13002722  0.51194093     0.29400
C247        C  0.35114062  0.15070289  0.51365986    -0.24500
C248        C  0.34421166  0.17566960  0.49399755    -0.23800
C249        C  0.29637784  0.17948620  0.47222352     0.40800
C250        C  0.25699827  0.15872096  0.47059028    -0.26300
O251        O  0.32042122  0.10577650  0.53088915    -0.58100
H252        H  0.38750663  0.14698569  0.53027553     0.16400
O253        O  0.28760903  0.20326799  0.45218734    -0.59600
H254        H  0.22043692  0.16200160  0.45397631     0.14900
H255        H  0.12397518  0.08086839  0.40749401     0.46700
H256        H  0.33771389  0.09337667  0.51199756     0.42100
H257        H  0.26646598  0.21531040  0.46953294     0.45600
H258        H  0.22551208  0.10292115  0.57185891     0.37100
C259        C  0.26686636  0.34632502  0.02450012    -0.27200
C260        C  0.26855069  0.36750701  0.99764255     0.02400
C261        C  0.31125035  0.36839819  0.97124169     0.30500
C262        C  0.35175799  0.34815667  0.97191932    -0.19000
C263        C  0.35002401  0.32649571  0.99844771    -0.28400
C264        C  0.30675748  0.32577033  0.02489722     0.44500
C265        C  0.22518741  0.38847835  0.99730043     0.05700
O266        O  0.31440358  0.38938776  0.94532116    -0.56900
H267        H  0.38435926  0.34936690  0.95133354     0.18700
O268        O  0.30337736  0.30542073  0.05174527    -0.63600
H269        H  0.23406251  0.34556500  0.04499553     0.17100
C270        C  0.18532322  0.38846974  0.96856693     0.29400
C271        C  0.14431909  0.40843432  0.96878236    -0.24500
C272        C  0.14240106  0.42842345  0.99763054    -0.23800
C273        C  0.18204587  0.42825209  0.02656616     0.40800
C274        C  0.22309102  0.40831661  0.02629099    -0.26300
O275        O  0.18620364  0.36903596  0.94020285    -0.58100
H276        H  0.11403155  0.40842634  0.94637779     0.16400
O277        O  0.18127863  0.44769317  0.05493038    -0.59600
H278        H  0.25351974  0.40838108  0.04860443     0.14900
H279        H  0.27878029  0.29136058  0.04058719     0.46700
H280        H  0.16630128  0.35300187  0.95064808     0.42100
H281        H  0.15481761  0.44073521  0.07383648     0.45600
H282        H  0.29809490  0.38189738  0.92165587     0.37100
C283        C  0.73736335  0.34616993  0.02115271    -0.27200
C284        C  0.73605498  0.36652974  0.99297350     0.02400
C285        C  0.69477072  0.36566150  0.96523161     0.30500
C286        C  0.65482871  0.34512992  0.96663704    -0.19000
C287        C  0.65505960  0.32509362  0.99553473    -0.28400
C288        C  0.69766900  0.32557258  0.02257949     0.44500
C289        C  0.77763151  0.38868256  0.99333687     0.05700
O290        O  0.69246095  0.38507692  0.93702527    -0.56900
H291        H  0.62318886  0.34516661  0.94518004     0.18700
O292        O  0.70045424  0.30647709  0.05116925    -0.63600
H293        H  0.76947389  0.34622617  0.04227497     0.17100
C294        C  0.78605613  0.40488709  0.02617246     0.29400
C295        C  0.82672262  0.42505743  0.02661208    -0.24500
C296        C  0.85961511  0.42922622  0.99468903    -0.23800
C297        C  0.85088329  0.41338563  0.96170072     0.40800
C298        C  0.81001852  0.39330284  0.96111693    -0.25700
O299        O  0.75334766  0.40179539  0.05743286    -0.58100
H300        H  0.83269049  0.43748148  0.05191852     0.16400
O301        O  0.88149783  0.41778105  0.92974141    -0.59600
H302        H  0.80415103  0.38102020  0.93567383     0.14900
H303        H  0.72536306  0.29197644  0.04159445     0.46700
H304        H  0.77611522  0.39225640  0.07660158     0.42100
H305        H  0.91289758  0.40511165  0.93211932     0.45600
H306        H  0.66995639  0.40020609  0.94756551     0.37100
C307        C  0.73753621  0.15469084  0.02557706    -0.27200
C308        C  0.73683531  0.13450693  0.99702448     0.02400
C309        C  0.69546302  0.13488194  0.96947299     0.30500
C310        C  0.65495118  0.15505824  0.97103673    -0.19000
C311        C  0.65526774  0.17546549  0.99957570    -0.28400
C312        C  0.69769413  0.17528060  0.02677796     0.44500
C313        C  0.77905351  0.11287825  0.99661049     0.05700
O314        O  0.69307581  0.11489042  0.94186698    -0.56900
H315        H  0.62315220  0.15461741  0.94970198     0.18700
O316        O  0.70020448  0.19468804  0.05513431    -0.63600
H317        H  0.76940797  0.15457776  0.04688763     0.17100
C318        C  0.81635706  0.11087611  0.96641650     0.29400
C319        C  0.85599237  0.09021974  0.96662915    -0.24500
C320        C  0.85912873  0.07151041  0.99686159    -0.23800
C321        C  0.82193595  0.07354465  0.02708830     0.40800
C322        C  0.78226569  0.09418392  0.02686453    -0.26300
O323        O  0.81465025  0.12916062  0.93679478    -0.58100
H324        H  0.88459811  0.08884756  0.94331048     0.16400
O325        O  0.82405227  0.05539799  0.05686156    -0.59600
H326        H  0.75375198  0.09555735  0.05024216     0.14900
H327        H  0.72491841  0.20917165  0.04537534     0.46700
H328        H  0.83761670  0.14487039  0.94499983     0.42100
H329        H  0.85045058  0.06349845  0.07505091     0.45600
H330        H  0.70511230  0.12402893  0.91814138     0.37100
C331        C  0.30426718  0.13454434  0.96654901    -0.27200
C332        C  0.26763531  0.13289045  0.99692406     0.02400
C333        C  0.27289830  0.15138172  0.02762261     0.30500
C334        C  0.31401866  0.17133410  0.02741164    -0.19000
C335        C  0.35081088  0.17310925  0.99692705    -0.28400
C336        C  0.34572205  0.15426902  0.96642346     0.44500
C337        C  0.22422589  0.11174110  0.99627489     0.05700
O338        O  0.23777385  0.15026487  0.05782706    -0.56900
H339        H  0.31718037  0.18540080  0.05128135     0.18700
O340        O  0.37978484  0.15550224  0.93564586    -0.63600
H341        H  0.30093469  0.12032130  0.94286462     0.17100
C342        C  0.18607137  0.11067874  0.96636441     0.29400
C343        C  0.14531090  0.09053820  0.96634556    -0.24500
C344        C  0.14249282  0.07106757  0.99565196    -0.23800
C345        C  0.18101656  0.07188781  0.02525654     0.40800
C346        C  0.22127873  0.09224687  0.02557863    -0.26300
O347        O  0.18712909  0.12989881  0.93786348    -0.58100
H348        H  0.11575749  0.09009995  0.94347148     0.16400
O349        O  0.17861977  0.05328222  0.05447764    -0.59600
H350        H  0.25057943  0.09269744  0.04860918     0.14900
H351        H  0.40815154  0.14143047  0.94053116     0.46700
H352        H  0.20317825  0.12028322  0.91563551     0.42100
H353        H  0.20561815  0.03885638  0.04795186     0.45600
H354        H  0.20590959  0.16142069  0.05004554     0.37100
N355        N  0.08506716  0.50000943  0.99738240    -0.36200
N356        N  0.00297495  0.54283466  0.99387327    -0.56800
N357        N  0.91881295  0.50063738  0.99691883    -0.36200
N358        N  0.00078764  0.95767815  0.99943477    -0.56800
C359        C  0.11613064  0.52215754  0.98908327     0.27400
C360        C  0.11386493  0.97734293  0.99262593     0.27400
C361        C  0.88826329  0.52316363  0.98964656     0.27400
C362        C  0.88692999  0.97751297  0.99161252     0.27400
C363        C  0.04723644  0.55877379  0.99983056     0.36000
C364        C  0.95926012  0.55914438  0.99967815     0.36000
C365        C  0.04452318  0.94199342  0.00781077     0.36000
C366        C  0.95662302  0.94192156  0.00605882     0.36000
C367        C  0.16649712  0.51350805  0.97609684    -0.21500
C368        C  0.16370600  0.98511396  0.97776494    -0.21500
C369        C  0.83665202  0.51508218  0.97828039    -0.21500
C370        C  0.83625206  0.98562065  0.97839415    -0.21500
C371        C  0.03162203  0.58541472  0.00883399    -0.22500
C372        C  0.97584289  0.58565631  0.00873306    -0.22500
C373        C  0.02807556  0.91616879  0.01990747    -0.22500
C374        C  0.97229611  0.91609044  0.01864758    -0.22500
C375        C  0.10152158  0.54991852  0.99536559    -0.17900
C376        C  0.09893711  0.95000429  0.00154778    -0.17900
C377        C  0.90261786  0.94991093  0.99819385    -0.17900
C378        C  0.90458191  0.55079197  0.99529511    -0.17900
H379        H  0.20044835  0.52627577  0.96770174     0.15000
H380        H  0.19700665  0.97180387  0.96958444     0.15000
H381        H  0.80269392  0.52823011  0.97098197     0.15000
H382        H  0.80269511  0.97250611  0.97006183     0.15000
H383        H  0.05766872  0.60287163  0.01474352     0.13300
H384        H  0.95042868  0.60334910  0.01462434     0.13300
H385        H  0.05357273  0.89902371  0.02813875     0.13300
H386        H  0.94626407  0.89890238  0.02575563     0.13300
H387        H  0.04847043  0.50036221  0.01197536     0.26600
H388        H  0.95648157  0.50059917  0.01012610     0.26600
N389        N  0.08202055  0.50117818  0.48900827    -0.36200
N390        N  0.99931553  0.95841258  0.49132358    -0.56800
N391        N  0.91538028  0.50023334  0.48896343    -0.36200
N392        N  0.99799682  0.54313241  0.49163256    -0.56800
C393        C  0.11276978  0.97911879  0.49573752     0.27400
C394        C  0.11238537  0.52376813  0.49653920     0.27400
C395        C  0.88564686  0.97805967  0.49712936     0.27400
C396        C  0.88438988  0.52240702  0.49760691     0.27400
C397        C  0.04357322  0.94241057  0.48589554     0.36000
C398        C  0.95556713  0.94203428  0.48587955     0.36000
C399        C  0.04151083  0.55958882  0.48607862     0.36000
C400        C  0.95355005  0.55912896  0.48713132     0.36000
C401        C  0.16333322  0.98801706  0.50817125    -0.21500
C402        C  0.16364271  0.51579446  0.50873652    -0.21500
C403        C  0.83559159  0.98643050  0.51101674    -0.21500
C404        C  0.83359814  0.51368435  0.50966018    -0.21500
C405        C  0.02789709  0.91569444  0.47728177    -0.22500
C406        C  0.97205929  0.91545989  0.47726133    -0.22500
C407        C  0.02467888  0.58622343  0.47829189    -0.22500
C408        C  0.96887774  0.58594160  0.47901123    -0.22500
C409        C  0.09781579  0.95120486  0.49107954    -0.17900
C410        C  0.09613964  0.55135988  0.49078406    -0.17900
C411        C  0.89950958  0.55030369  0.49288973    -0.17900
C412        C  0.90112838  0.95034318  0.49132183    -0.17900
H413        H  0.19727386  0.97543467  0.51720096     0.15000
H414        H  0.19737852  0.52898345  0.51647024     0.15000
H415        H  0.80251537  0.97347092  0.52047398     0.15000
H416        H  0.79953261  0.52639815  0.51810417     0.15000
H417        H  0.05395985  0.89814969  0.47196367     0.13300
H418        H  0.94654177  0.89769365  0.47202812     0.13300
H419        H  0.04996343  0.60407407  0.47324472     0.13300
H420        H  0.94261969  0.60352965  0.47456460     0.13300
H421        H  0.04469545  0.50095937  0.47524115     0.26600
H422        H  0.95262945  0.50060587  0.47516018     0.26600
O423        O  0.39025743  0.71529255  0.02338544    -0.78100
C424        C  0.49660597  0.75095858  0.10953417     0.83000
O425        O  0.43457166  0.80878277  0.98261681    -0.79200
O426        O  0.61462702  0.78471963  0.02490298    -0.80700
O427        O  0.57383205  0.69439688  0.98186957    -0.80500
O428        O  0.43861953  0.69168218  0.98114892    -0.79100
Zn429      Zn  0.43449832  0.74970904  0.03401116     1.55700
O430        O  0.61513740  0.71655097  0.02912779    -0.80500
Cd431      Cd  0.50442412  0.71684554  0.97124802     1.59700
Cd432      Cd  0.50063086  0.78371916  0.97083060     1.59600
O433        O  0.50371983  0.72688855  0.91426112    -0.80500
O434        O  0.50066471  0.75036138  0.00389152    -1.91000
Cd435      Cd  0.56647780  0.75101478  0.03734577     1.59900
O436        O  0.49622746  0.77258250  0.91420115    -0.80400
O437        O  0.54328422  0.75209675  0.09385798    -0.79100
C438        C  0.39284147  0.80492370  0.00338390     0.83400
C439        C  0.39687091  0.69418031  0.00221699     0.83100
O440        O  0.45321034  0.74988943  0.08976174    -0.78100
C441        C  0.61285731  0.69660294  0.00554029     0.83900
O442        O  0.38775843  0.78321544  0.02339185    -0.78100
C443        C  0.49911222  0.74965170  0.89661847     0.84000
C444        C  0.61191187  0.80394943  0.00036337     0.84400
O445        O  0.57144592  0.80613140  0.97786314    -0.80600
O446        O  0.38763875  0.78576200  0.48134663    -0.78100
C447        C  0.49257780  0.74678767  0.39616428     0.83000
O448        O  0.42838286  0.69313502  0.52335364    -0.79200
O449        O  0.60976930  0.71521682  0.48146549    -0.80700
O450        O  0.56955940  0.80715902  0.52145889    -0.80500
O451        O  0.43321742  0.80910951  0.52548172    -0.79100
Zn452      Zn  0.43137702  0.75154462  0.47099899     1.55700
O453        O  0.60934401  0.78398298  0.47442887    -0.80500
Cd454      Cd  0.50081755  0.78426519  0.53462715     1.59700
Cd455      Cd  0.49595228  0.71704371  0.53507944     1.59600
O456        O  0.50297336  0.77379724  0.59192250    -0.80500
O457        O  0.49675316  0.75048999  0.50203884    -1.91000
Cd458      Cd  0.56199020  0.74881109  0.46844317     1.59900
O459        O  0.49405761  0.72811214  0.59187743    -0.80400
O460        O  0.53890311  0.74467107  0.41212960    -0.79100
C461        C  0.38804787  0.69686100  0.50113921     0.83400
C462        C  0.39255033  0.80660517  0.50318174     0.83100
O463        O  0.44929725  0.75064348  0.41522739    -0.78100
C464        C  0.60745844  0.80462388  0.49692609     0.83900
O465        O  0.38437964  0.71839281  0.48071749    -0.78100
C466        C  0.49862131  0.75096425  0.60955301     0.84000
C467        C  0.60529389  0.69506644  0.50438855     0.84400
O468        O  0.56450116  0.69286653  0.52648652    -0.80600
C469        C  0.47465153  0.77076292  0.79405157    -0.27200
C470        C  0.49756676  0.74854085  0.77420975     0.02400
C471        C  0.52063554  0.72659180  0.79473141     0.30500
C472        C  0.52042164  0.72711081  0.83455882    -0.19000
C473        C  0.49760045  0.74939767  0.85452171    -0.28400
C474        C  0.47429611  0.77128870  0.83380648     0.44500
C475        C  0.49794411  0.74889713  0.73209751     0.05700
O476        O  0.54607452  0.70534145  0.77608301    -0.56900
H477        H  0.53921841  0.71024714  0.84981733     0.18700
O478        O  0.45084013  0.79328414  0.85201807    -0.63600
H479        H  0.45660453  0.78773713  0.77857989     0.17100
C480        C  0.47374515  0.72759397  0.71078408     0.29400
C481        C  0.47461306  0.72848357  0.67103136    -0.24500
C482        C  0.49856404  0.75072468  0.65175437    -0.23800
C483        C  0.52235257  0.77218406  0.67324440     0.40800
C484        C  0.52167649  0.77118077  0.71302165    -0.26300
O485        O  0.44834443  0.70602443  0.72849873    -0.58100
H486        H  0.45564680  0.71186803  0.65524314     0.16400
O487        O  0.54703701  0.79406872  0.65579130    -0.59600
H488        H  0.54035111  0.78774837  0.72909161     0.14900
H489        H  0.41249052  0.78780924  0.85622766     0.46700
H490        H  0.41139551  0.71284288  0.73465186     0.42100
H491        H  0.58534918  0.78830037  0.65207735     0.45600
H492        H  0.52306533  0.68890433  0.78052331     0.37100
C493        C  0.44094264  0.74698509  0.21049755    -0.27200
C494        C  0.48895715  0.74720094  0.23206419     0.02400
C495        C  0.53925408  0.74915970  0.21316705     0.30500
C496        C  0.54099407  0.75053157  0.17349308    -0.19000
C497        C  0.49298756  0.75035381  0.15172626    -0.28400
C498        C  0.44250608  0.74889239  0.17081481     0.44500
C499        C  0.48640286  0.74572653  0.27419486     0.05700
O500        O  0.58710527  0.74992678  0.23321873    -0.56900
H501        H  0.58031995  0.75175279  0.15980519     0.18700
O502        O  0.39433582  0.74879601  0.15112673    -0.63600
H503        H  0.40190746  0.74511938  0.22443988     0.17100
C504        C  0.45293327  0.76375683  0.29520215     0.29400
C505        C  0.45419252  0.76328416  0.33498700    -0.24500
C506        C  0.48893362  0.74522533  0.35438640    -0.23800
C507        C  0.52072101  0.72644000  0.33349451     0.40800
C508        C  0.51908380  0.72669370  0.29373800    -0.26300
O509        O  0.42163947  0.78313807  0.27716464    -0.58100
H510        H  0.42948631  0.77785604  0.35070257     0.16400
O511        O  0.55356659  0.70779392  0.35163920    -0.59600
H512        H  0.54392498  0.71215197  0.27808987     0.14900
H513        H  0.38238891  0.76830622  0.15067231     0.46700
H514        H  0.38360878  0.77667246  0.27993767     0.42100
H515        H  0.53048773  0.69128940  0.35551451     0.45600
H516        H  0.59307925  0.76964243  0.23927643     0.37100
C517        C  0.30584654  0.86933108  0.52788763    -0.27200
C518        C  0.26742296  0.86889332  0.49838823     0.02400
C519        C  0.27031024  0.84805991  0.47061674     0.30500
C520        C  0.31115728  0.82806880  0.47256952    -0.19000
C521        C  0.34992002  0.82834505  0.50208850    -0.28400
C522        C  0.34695088  0.84940026  0.52985738     0.44500
C523        C  0.22421657  0.89011591  0.49689534     0.05700
O524        O  0.23302606  0.84690464  0.44160567    -0.56900
H525        H  0.31237022  0.81228516  0.45075741     0.18700
O526        O  0.38296762  0.85035639  0.55963690    -0.63600
H527        H  0.30415385  0.88531950  0.54940565     0.17100
C528        C  0.18699235  0.89319643  0.52699192     0.29400
C529        C  0.14566063  0.91295202  0.52465223    -0.24500
C530        C  0.14138255  0.93006884  0.49274918    -0.23800
C531        C  0.17900204  0.92729973  0.46290559     0.40800
C532        C  0.21981939  0.90726625  0.46495954    -0.26300
O533        O  0.18947122  0.87624840  0.55807953    -0.58100
H534        H  0.11689078  0.91498705  0.54778183     0.16400
O535        O  0.17532105  0.94369448  0.43131147    -0.59600
H536        H  0.24833442  0.90519483  0.44168095     0.14900
H537        H  0.41142047  0.86361003  0.55173608     0.46700
H538        H  0.20722483  0.88735763  0.57827998     0.42100
H539        H  0.20064444  0.95920817  0.43616119     0.45600
H540        H  0.20224753  0.83601932  0.45179775     0.37100
C541        C  0.78478823  0.90414522  0.46014786    -0.27200
C542        C  0.77512150  0.88884818  0.49327553     0.02400
C543        C  0.80759893  0.89361123  0.52569767     0.30500
C544        C  0.84895338  0.91345969  0.52467662    -0.19000
C545        C  0.85799111  0.92894681  0.49172078    -0.28400
C546        C  0.82576833  0.92415696  0.45929372     0.44500
C547        C  0.73152440  0.86774068  0.49357552     0.05700
O548        O  0.80049891  0.87819000  0.55793768    -0.56900
H549        H  0.87391423  0.91687126  0.54966182     0.18700
O550        O  0.83383950  0.93911240  0.42677182    -0.63600
H551        H  0.76016311  0.90068808  0.43501055     0.17100
C552        C  0.68748088  0.86975074  0.51886802     0.29400
C553        C  0.64766189  0.84916945  0.51953596    -0.24500
C554        C  0.65035157  0.82630340  0.49487436    -0.23800
C555        C  0.69422986  0.82467061  0.46895706     0.40800
C556        C  0.73399533  0.84535973  0.46835938    -0.26300
O557        O  0.68277094  0.89188825  0.54293791    -0.58100
H558        H  0.61446118  0.85124809  0.53952257     0.16400
O559        O  0.69876187  0.80310054  0.44390420    -0.59600
H560        H  0.76748485  0.84368248  0.44851284     0.14900
H561        H  0.86321985  0.92934018  0.41295107     0.46700
H562        H  0.66188254  0.90582954  0.52843001     0.42100
H563        H  0.72265750  0.78955354  0.45676764     0.45600
H564        H  0.78362992  0.89082785  0.57671964     0.37100
C565        C  0.68824206  0.63071908  0.52763300    -0.27200
C566        C  0.73170136  0.63335623  0.50214864     0.02400
C567        C  0.73391388  0.65640552  0.47813893     0.30500
C568        C  0.69284485  0.67626111  0.47948322    -0.19000
C569        C  0.64870185  0.67369076  0.50466394    -0.28400
C570        C  0.64679744  0.65052240  0.52893548     0.44500
C571        C  0.77428183  0.61184220  0.50028595     0.05700
O572        O  0.77620086  0.65973564  0.45320847    -0.56900
H573        H  0.69569590  0.69372021  0.46049616     0.18700
O574        O  0.60494879  0.64697326  0.55415731    -0.63600
H575        H  0.68597505  0.61297921  0.54617526     0.17100
C576        C  0.80673051  0.60570724  0.53218398     0.29400
C577        C  0.84773075  0.58578344  0.52940632    -0.24500
C578        C  0.85627320  0.57154197  0.49519471    -0.23800
C579        C  0.82355426  0.57743108  0.46344287     0.40800
C580        C  0.78309151  0.59759839  0.46603378    -0.26300
O581        O  0.80005869  0.61987368  0.56565008    -0.58100
H582        H  0.87292592  0.58139043  0.55395023     0.16400
O583        O  0.83168036  0.56396478  0.42959797    -0.59600
H584        H  0.75833211  0.60208384  0.44130209     0.14900
H585        H  0.57815665  0.63522444  0.54062394     0.46700
H586        H  0.77859090  0.60746069  0.58216638     0.42100
H587        H  0.80788298  0.54751275  0.43069534     0.45600
H588        H  0.80484916  0.66940261  0.46794667     0.37100
C589        C  0.21098412  0.59832201  0.46016642    -0.27200
C590        C  0.22167109  0.61272133  0.49400937     0.02400
C591        C  0.19043888  0.60721715  0.52660256     0.30500
C592        C  0.14898873  0.58751551  0.52507168    -0.19000
C593        C  0.13879662  0.57290353  0.49139469    -0.28400
C594        C  0.16995337  0.57837791  0.45879085     0.44500
C595        C  0.26495461  0.63377104  0.49502028     0.05700
O596        O  0.19910924  0.62166195  0.55964270    -0.56900
H597        H  0.12499798  0.58344154  0.55024008     0.18700
O598        O  0.16096533  0.56407585  0.42569223    -0.63600
H599        H  0.23483540  0.60241604  0.43493552     0.17100
C600        C  0.31137347  0.63022841  0.51781999     0.29400
C601        C  0.35076075  0.65094079  0.51969510    -0.24500
C602        C  0.34497794  0.67543319  0.49875032    -0.23800
C603        C  0.29842874  0.67868843  0.47545921     0.40800
C604        C  0.25921021  0.65784512  0.47358452    -0.26300
O605        O  0.31863534  0.60653756  0.53834638    -0.58100
H606        H  0.38607929  0.64766911  0.53755082     0.16400
O607        O  0.29071884  0.70201806  0.45423538    -0.59600
H608        H  0.22360848  0.66069511  0.45583537     0.14900
H609        H  0.13173527  0.57433333  0.41241633     0.46700
H610        H  0.33740099  0.59365248  0.52081064     0.42100
H611        H  0.26869902  0.71442406  0.47053149     0.45600
H612        H  0.21922532  0.60888484  0.57652246     0.37100
C613        C  0.25589975  0.84046097  0.01635873    -0.27200
C614        C  0.26775026  0.86719754  0.00409451     0.02400
C615        C  0.32056577  0.87351572  0.99176063     0.30500
C616        C  0.36086132  0.85313410  0.99175333    -0.19000
C617        C  0.34936193  0.82620708  0.00411668    -0.28400
C618        C  0.29609007  0.82003218  0.01648368     0.44500
C619        C  0.22438384  0.88823539  0.00353295     0.05700
O620        O  0.33308759  0.89953765  0.97951112    -0.56900
H621        H  0.40129746  0.85848871  0.98214419     0.18700
O622        O  0.28251795  0.79406543  0.02837892    -0.63600
H623        H  0.21520141  0.83540491  0.02577199     0.17100
C624        C  0.18243823  0.88693292  0.97636362     0.29400
C625        C  0.14197349  0.90718311  0.97583477    -0.24500
C626        C  0.14217080  0.92859897  0.00271486    -0.23800
C627        C  0.18375679  0.92965354  0.03027854     0.40800
C628        C  0.22483577  0.90968658  0.03031790    -0.26300
O629        O  0.18169345  0.86639721  0.94952054    -0.58100
H630        H  0.11035340  0.90623837  0.95438514     0.16400
O631        O  0.18465143  0.95019871  0.05711707    -0.59600
H632        H  0.25685638  0.91076940  0.05146154     0.14900
H633        H  0.26990443  0.78432153  0.00516013     0.46700
H634        H  0.15794088  0.85188774  0.96024674     0.42100
H635        H  0.16029540  0.94373897  0.07768976     0.45600
H636        H  0.32310580  0.89976915  0.95216896     0.37100
C637        C  0.74157265  0.84423237  0.02112493    -0.27200
C638        C  0.73896938  0.86486586  0.99348740     0.02400
C639        C  0.69601433  0.86487903  0.96713487     0.30500
C640        C  0.65538019  0.84477277  0.96936680    -0.19000
C641        C  0.65686627  0.82434599  0.99775207    -0.28400
C642        C  0.70139685  0.82394822  0.02326113     0.44500
C643        C  0.77986563  0.88706924  0.99390839     0.05700
O644        O  0.69282790  0.88476261  0.93959525    -0.56900
H645        H  0.62226252  0.84545790  0.94905616     0.18700
O646        O  0.70554843  0.80435740  0.05112013    -0.63600
H647        H  0.77474914  0.84403844  0.04143798     0.17100
C648        C  0.78097858  0.90621759  0.02398902     0.29400
C649        C  0.82082274  0.92672941  0.02493739    -0.24500
C650        C  0.86025365  0.92819278  0.99630534    -0.23800
C651        C  0.85907226  0.90909819  0.96609581     0.40800
C652        C  0.81868640  0.88878083  0.96487488    -0.25700
O653        O  0.74238521  0.90537726  0.05206004    -0.58100
H654        H  0.82123330  0.94145090  0.04814739     0.16400
O655        O  0.89660412  0.91054646  0.93737695    -0.59600
H656        H  0.81806064  0.87412667  0.94158542     0.14900
H657        H  0.72842610  0.78958429  0.03997437     0.46700
H658        H  0.75932229  0.89484675  0.07308088     0.42100
H659        H  0.92482651  0.89677151  0.94398961     0.45600
H660        H  0.67462089  0.90063626  0.95199648     0.37100
C661        C  0.74044593  0.65513996  0.02913909    -0.27200
C662        C  0.73836547  0.63459228  0.00108675     0.02400
C663        C  0.69503360  0.63429186  0.97506349     0.30500
C664        C  0.65451616  0.65441345  0.97721778    -0.19000
C665        C  0.65652166  0.67539166  0.00492219    -0.28400
C666        C  0.70035814  0.67561196  0.03101847     0.44500
C667        C  0.78127909  0.61333297  0.99941349     0.05700
O668        O  0.69086830  0.61371837  0.94838126    -0.56900
H669        H  0.62141098  0.65349566  0.95691130     0.18700
O670        O  0.70424941  0.69540525  0.05878521    -0.63600
H671        H  0.77367287  0.65546982  0.04940750     0.17100
C672        C  0.81518813  0.61086151  0.96734323     0.29400
C673        C  0.85504835  0.59033599  0.96612488    -0.24500
C674        C  0.86170682  0.57222258  0.99673502    -0.23800
C675        C  0.82803354  0.57473647  0.02884055     0.40800
C676        C  0.78818856  0.59526139  0.03008544    -0.26300
O677        O  0.80983900  0.62851675  0.93720384    -0.58100
H678        H  0.88098903  0.58856958  0.94137154     0.16400
O679        O  0.83359908  0.55706612  0.05894796    -0.59600
H680        H  0.76226679  0.59694763  0.05486075     0.14900
H681        H  0.72788877  0.70990789  0.04787750     0.46700
H682        H  0.83395233  0.64428506  0.94326071     0.42100
H683        H  0.86215784  0.56537422  0.07526057     0.45600
H684        H  0.69987796  0.62249895  0.92376037     0.37100
C685        C  0.31374856  0.63123362  0.97354297    -0.27200
C686        C  0.27267380  0.63142154  0.00106667     0.02400
C687        C  0.27322542  0.65183488  0.02955083     0.30500
C688        C  0.31397836  0.67197020  0.02980409    -0.19000
C689        C  0.35495856  0.67210905  0.00192262    -0.28400
C690        C  0.35476140  0.65117687  0.97385001     0.44500
C691        C  0.22895160  0.61049718  0.99935596     0.05700
O692        O  0.23365248  0.65251901  0.05696150    -0.56900
H693        H  0.31325838  0.68759061  0.05185131     0.18700
O694        O  0.39334499  0.65042191  0.94576415    -0.63600
H695        H  0.31403104  0.61549384  0.95164141     0.17100
C696        C  0.19519774  0.60824373  0.96707801     0.29400
C697        C  0.15348684  0.58863696  0.96616783    -0.24500
C698        C  0.14561163  0.57076635  0.99688396    -0.23800
C699        C  0.17995975  0.57261724  0.02882216     0.40800
C700        C  0.22096811  0.59258199  0.03008416    -0.26300
O701        O  0.20149855  0.62580257  0.93692194    -0.58100
H702        H  0.12728364  0.58729134  0.94143786     0.16400
O703        O  0.17290644  0.55534958  0.05920608    -0.59600
H704        H  0.24692364  0.59394527  0.05494201     0.14900
H705        H  0.42127248  0.63726815  0.95491308     0.46700
H706        H  0.22085575  0.61492315  0.91723715     0.42100
H707        H  0.19823873  0.53979317  0.05469244     0.45600
H708        H  0.20304587  0.66282870  0.04539484     0.37100
loop_ 
_geom_bond_atom_site_label_1 
_geom_bond_atom_site_label_2 
_geom_bond_distance 
_geom_bond_site_symmetry_2 
_ccdc_geom_bond_type 
N1           H33   1.039   1_556  S
N1            C5   1.352       .  A
N1          C360   1.353   1_545  A
N2            C9   1.351   1_556  A
N2           C10   1.351   1_456  A
N3           H34   1.038   1_556  S
N3            C7   1.352       .  A
N3          C362   1.353   1_545  A
N4           C11   1.351   1_556  A
N4           C12   1.351   1_456  A
C5           C13   1.387       .  A
C5           C21   1.413       .  A
C6          N355   1.352       .  A
C6           C22   1.414       .  A
C6           C14   1.387       .  A
C7           C15   1.387       .  A
C7           C24   1.413       .  A
C8          N357   1.353       .  A
C8           C23   1.414       .  A
C8           C16   1.387       .  A
C9           C21   1.412   1_554  A
C9           C17   1.386       .  A
C10          C24   1.412   1_554  A
C10          C18   1.386       .  A
C11          C19   1.386       .  A
C11          C22   1.413   1_554  A
C12          C20   1.386       .  A
C12          C23   1.412   1_554  A
C13         C368   1.376   1_545  A
C13          H25   1.082       .  S
C14         C367   1.375       .  A
C14          H26   1.082       .  S
C15         C370   1.376   1_545  A
C15          H27   1.082       .  S
C16         C369   1.375       .  A
C16          H28   1.082       .  S
C17          C18   1.373   1_455  A
C17          H29   1.082       .  S
C18          H30   1.082       .  S
C19          C20   1.374   1_455  A
C19          H31   1.082       .  S
C20          H32   1.082       .  S
C21         C344   1.486       .  S
C22         C272   1.485       .  S
C23         C296   1.484       .  S
C24         C320   1.484       .  S
N35          H67   1.037       .  S
N35          C40   1.353       .  A
N35         C393   1.353   1_545  A
N36          C43   1.352   1_655  A
N36          C44   1.352       .  A
N37          H68   1.038       .  S
N37          C42   1.353       .  A
N37         C395   1.353   1_545  A
N38          C45   1.350   1_655  A
N38          C46   1.350       .  A
C39         N389   1.353       .  A
C39          C47   1.387       .  A
C39          C55   1.415       .  A
C40          C56   1.414       .  A
C40          C48   1.387       .  A
C41         N391   1.353       .  A
C41          C49   1.387       .  A
C41          C58   1.415       .  A
C42          C57   1.414       .  A
C42          C50   1.387       .  A
C43          C55   1.414       .  A
C43          C51   1.386       .  A
C44          C58   1.414       .  A
C44          C52   1.386       .  A
C45          C53   1.386       .  A
C45          C56   1.411       .  A
C46          C54   1.386       .  A
C46          C57   1.411       .  A
C47         C402   1.374       .  A
C47          H59   1.082       .  S
C48         C401   1.374   1_545  A
C48          H60   1.082       .  S
C49         C404   1.375       .  A
C49          H61   1.082       .  S
C50         C403   1.376   1_545  A
C50          H62   1.082       .  S
C51          C52   1.374   1_455  A
C51          H63   1.082       .  S
C52          H64   1.082       .  S
C53          C54   1.374   1_455  A
C53          H65   1.082       .  S
C54          H66   1.082       .  S
C55         C176   1.485       .  S
C56         C239   1.481       .  S
C57         C224   1.482       .  S
C58         C191   1.487       .  S
O69          C85   1.275   1_554  A
O69         Zn75   2.027       .  S
C70         C143   1.486       .  S
C70          O86   1.273       .  A
C70          O83   1.276       .  A
O71          C84   1.275       .  A
O71         Cd78   2.069       .  S
O72          C90   1.275   1_554  A
O72         Cd81   2.073       .  S
O73          C87   1.275   1_556  A
O73         Cd77   2.062       .  S
O74          C85   1.274       .  A
O74         Cd77   2.066       .  S
Zn75         O86   2.009       .  S
Zn75         O88   2.019       .  S
Zn75         O80   1.944   1_554  S
O76          C87   1.275       .  A
O76         Cd81   2.074       .  S
Cd77         O79   2.063       .  S
Cd77         O80   1.994       .  S
Cd78         O82   2.066       .  S
Cd78         O91   2.074       .  S
Cd78         O80   1.998       .  S
O79          C89   1.274       .  A
O80         Cd81   1.999   1_556  S
Cd81         O83   2.070       .  S
O82          C89   1.274       .  A
C84         C263   1.488       .  S
C84          O88   1.275   1_556  A
C85         C335   1.486       .  S
C87         C311   1.487   1_554  S
C89         C119   1.480       .  S
C90         C287   1.490       .  S
C90          O91   1.276       .  A
O92         C108   1.275       .  A
O92         Zn98   2.014       .  S
C93         C152   1.474       .  S
C93         O109   1.273       .  A
C93         O106   1.274       .  A
O94         C107   1.275       .  A
O94        Cd101   2.066       .  S
O95         C113   1.275       .  A
O95        Cd104   2.064       .  S
O96         C110   1.277       .  A
O96        Cd100   2.075       .  S
O97         C108   1.275       .  A
O97        Cd100   2.077       .  S
Zn98        O109   2.011       .  S
Zn98        O111   2.014       .  S
Zn98        O103   1.943       .  S
O99         C110   1.276       .  A
O99        Cd104   2.077       .  S
Cd100       O102   2.078       .  S
Cd100       O103   1.998       .  S
Cd101       O105   2.069       .  S
Cd101       O114   2.074       .  S
Cd101       O103   1.998       .  S
O102        C112   1.276       .  A
O103       Cd104   1.996       .  S
Cd104       O106   2.068       .  S
O105        C112   1.275       .  A
C107        C248   1.487       .  S
C107        O111   1.274       .  A
C108        C167   1.489       .  S
C110        C200   1.492       .  S
C112        C128   1.486       .  S
C113        C215   1.489       .  S
C113        O114   1.275       .  A
C115        C116   1.403       .  A
C115        C120   1.398       .  A
C115        H125   1.084       .  S
C116        C117   1.409       .  A
C116        C121   1.483       .  S
C117        C118   1.401       .  A
C117        O122   1.373       .  S
C118        C119   1.405       .  A
C118        H123   1.084       .  S
C119        C120   1.410       .  A
C120        O124   1.372       .  S
C121        C126   1.408       .  A
C121        C130   1.403       .  A
O122        H138   0.992       .  S
O124        H135   0.992       .  S
C126        C127   1.400       .  A
C126        O131   1.372       .  S
C127        C128   1.408       .  A
C127        H132   1.083       .  S
C128        C129   1.412       .  A
C129        C130   1.399       .  A
C129        O133   1.371       .  S
C130        H134   1.084       .  S
O131        H136   0.992       .  S
O133        H137   0.992       .  S
C139        C140   1.402       .  A
C139        C144   1.400       .  A
C139        H149   1.083       .  S
C140        C141   1.408       .  A
C140        C145   1.482       .  S
C141        C142   1.397       .  A
C141        O146   1.372       .  S
C142        C143   1.406       .  A
C142        H147   1.083       .  S
C143        C144   1.415       .  A
C144        O148   1.372       .  S
C145        C150   1.409       .  A
C145        C154   1.404       .  A
O146        H162   0.992       .  S
O148        H159   0.992       .  S
C150        C151   1.399       .  A
C150        O155   1.372       .  S
C151        C152   1.403       .  A
C151        H156   1.084       .  S
C152        C153   1.408       .  A
C153        C154   1.398       .  A
C153        O157   1.372       .  S
C154        H158   1.084       .  S
O155        H160   0.992       .  S
O157        H161   0.993       .  S
C163        C164   1.402       .  A
C163        C168   1.402       .  A
C163        H173   1.084       .  S
C164        C165   1.405       .  A
C164        C169   1.481       .  S
C165        C166   1.399       .  A
C165        O170   1.372       .  S
C166        C167   1.408       .  A
C166        H171   1.083       .  S
C167        C168   1.415       .  A
C168        O172   1.371       .  S
C169        C174   1.408       .  A
C169        C178   1.404       .  A
O170        H186   0.992       .  S
O172        H183   0.992       .  S
C174        C175   1.400       .  A
C174        O179   1.372       .  S
C175        C176   1.402       .  A
C175        H180   1.083       .  S
C176        C177   1.407       .  A
C177        C178   1.400       .  A
C177        O181   1.372       .  S
C178        H182   1.084       .  S
O179        H184   0.992       .  S
O181        H185   0.992       .  S
C187        C188   1.404       .  A
C187        C192   1.401       .  A
C187        H197   1.084       .  S
C188        C189   1.409       .  A
C188        C193   1.484       .  S
C189        C190   1.402       .  A
C189        O194   1.372       .  S
C190        C191   1.402       .  A
C190        H195   1.083       .  S
C191        C192   1.407       .  A
C192        O196   1.371       .  S
C193        C198   1.407       .  A
C193        C202   1.402       .  A
O194        H210   0.992       .  S
O196        H207   0.992       .  S
C198        C199   1.400       .  A
C198        O203   1.371       .  S
C199        C200   1.409       .  A
C199        H204   1.083       .  S
C200        C201   1.416       .  A
C201        C202   1.403       .  A
C201        O205   1.371       .  S
C202        H206   1.084       .  S
O203        H208   0.992       .  S
O205        H209   0.992       .  S
C211        C212   1.402       .  A
C211        C216   1.401       .  A
C211        H221   1.084       .  S
C212        C213   1.405       .  A
C212        C217   1.480       .  S
C213        C214   1.398       .  A
C213        O218   1.372       .  S
C214        C215   1.408       .  A
C214        H219   1.083       .  S
C215        C216   1.415       .  A
C216        O220   1.371       .  S
C217        C222   1.408       .  A
C217        C226   1.404       .  A
O218        H234   0.992       .  S
O220        H231   0.992       .  S
C222        C223   1.400       .  A
C222        O227   1.372       .  S
C223        C224   1.402       .  A
C223        H228   1.083       .  S
C224        C225   1.405       .  A
C225        C226   1.399       .  A
C225        O229   1.371       .  S
C226        H230   1.084       .  S
O227        H232   0.992       .  S
O229        H233   0.992       .  S
C235        C236   1.404       .  A
C235        C240   1.400       .  A
C235        H245   1.084       .  S
C236        C237   1.408       .  A
C236        C241   1.478       .  S
C237        C238   1.399       .  A
C237        O242   1.372       .  S
C238        C239   1.401       .  A
C238        H243   1.084       .  S
C239        C240   1.405       .  A
C240        O244   1.371       .  S
C241        C246   1.406       .  A
C241        C250   1.401       .  A
O242        H258   0.992       .  S
O244        H255   0.992       .  S
C246        C247   1.398       .  A
C246        O251   1.372       .  S
C247        C248   1.408       .  A
C247        H252   1.083       .  S
C248        C249   1.415       .  A
C249        C250   1.400       .  A
C249        O253   1.372       .  S
C250        H254   1.084       .  S
O251        H256   0.992       .  S
O253        H257   0.992       .  S
C259        C260   1.399   1_554  A
C259        C264   1.400       .  A
C259        H269   1.084       .  S
C260        C261   1.404       .  A
C260        C265   1.475       .  S
C261        C262   1.400       .  A
C261        O266   1.372       .  S
C262        C263   1.409       .  A
C262        H267   1.083       .  S
C263        C264   1.415   1_556  A
C264        O268   1.371       .  S
C265        C270   1.407       .  A
C265        C274   1.402   1_556  A
O266        H282   0.991       .  S
O268        H279   0.992       .  S
C270        C271   1.399       .  A
C270        O275   1.371       .  S
C271        C272   1.403       .  A
C271        H276   1.084       .  S
C272        C273   1.408   1_556  A
C273        C274   1.399       .  A
C273        O277   1.372       .  S
C274        H278   1.084       .  S
O275        H280   0.992       .  S
O277        H281   0.992       .  S
C283        C284   1.402   1_554  A
C283        C288   1.399       .  A
C283        H293   1.083       .  S
C284        C285   1.408       .  A
C284        C289   1.485       .  S
C285        C286   1.401       .  A
C285        O290   1.372       .  S
C286        C287   1.409       .  A
C286        H291   1.083       .  S
C287        C288   1.414   1_556  A
C288        O292   1.371       .  S
C289        C294   1.411   1_556  A
C289        C298   1.405       .  A
O290        H306   0.991       .  S
O292        H303   0.992       .  S
C294        C295   1.400       .  A
C294        O299   1.372       .  S
C295        C296   1.400   1_554  A
C295        H300   1.084       .  S
C296        C297   1.406       .  A
C297        C298   1.401       .  A
C297        O301   1.371       .  S
C298        H302   1.083       .  S
O299        H304   0.992       .  S
O301        H305   0.991       .  S
C307        C308   1.401   1_554  A
C307        C312   1.401       .  A
C307        H317   1.084       .  S
C308        C309   1.404       .  A
C308        C313   1.477       .  S
C309        C310   1.399       .  A
C309        O314   1.372       .  S
C310        C311   1.408       .  A
C310        H315   1.083       .  S
C311        C312   1.415   1_556  A
C312        O316   1.371       .  S
C313        C318   1.408       .  A
C313        C322   1.403   1_556  A
O314        H330   0.992       .  S
O316        H327   0.992       .  S
C318        C319   1.399       .  A
C318        O323   1.371       .  S
C319        C320   1.403       .  A
C319        H324   1.084       .  S
C320        C321   1.407   1_556  A
C321        C322   1.399       .  A
C321        O325   1.371       .  S
C322        H326   1.084       .  S
O323        H328   0.991       .  S
O325        H329   0.991       .  S
C331        C332   1.401       .  A
C331        C336   1.400       .  A
C331        H341   1.084       .  S
C332        C333   1.408   1_556  A
C332        C337   1.482       .  S
C333        C334   1.401       .  A
C333        O338   1.372       .  S
C334        C335   1.407   1_554  A
C334        H339   1.083       .  S
C335        C336   1.413       .  A
C336        O340   1.372       .  S
C337        C342   1.409       .  A
C337        C346   1.403   1_556  A
O338        H354   0.991       .  S
O340        H351   0.992       .  S
C342        C343   1.401       .  A
C342        O347   1.372       .  S
C343        C344   1.403       .  A
C343        H348   1.084       .  S
C344        C345   1.407   1_556  A
C345        C346   1.400       .  A
C345        O349   1.372       .  S
C346        H350   1.084       .  S
O347        H352   0.992       .  S
O349        H353   0.992       .  S
N355        H387   1.037   1_556  S
N355        C359   1.353       .  A
N356        C363   1.352       .  A
N356        C364   1.351   1_455  A
N357        H388   1.036   1_556  S
N357        C361   1.352       .  A
N358        C365   1.351   1_556  A
N358        C366   1.350   1_456  A
C359        C367   1.386       .  A
C359        C375   1.412       .  A
C360        C376   1.414   1_556  A
C360        C368   1.387       .  A
C361        C369   1.387       .  A
C361        C378   1.414       .  A
C362        C377   1.415       .  A
C362        C370   1.387       .  A
C363        C375   1.412       .  A
C363        C371   1.386   1_556  A
C364        C378   1.413       .  A
C364        C372   1.387   1_556  A
C365        C373   1.386       .  A
C365        C376   1.412       .  A
C366        C374   1.386       .  A
C366        C377   1.411   1_554  A
C367        H379   1.082       .  S
C368        H380   1.082       .  S
C369        H381   1.082       .  S
C370        H382   1.082       .  S
C371        C372   1.373   1_455  A
C371        H383   1.082       .  S
C372        H384   1.082       .  S
C373        C374   1.373   1_455  A
C373        H385   1.082       .  S
C374        H386   1.082       .  S
C375        C698   1.485       .  S
C376        C626   1.488       .  S
C377        C650   1.484       .  S
C378        C674   1.483       .  S
N389        H421   1.037       .  S
N389        C394   1.353       .  A
N390        C397   1.351   1_655  A
N390        C398   1.352       .  A
N391        H422   1.038       .  S
N391        C396   1.354       .  A
N392        C399   1.351   1_655  A
N392        C400   1.351       .  A
C393        C401   1.387       .  A
C393        C409   1.414       .  A
C394        C410   1.413       .  A
C394        C402   1.387       .  A
C395        C403   1.386       .  A
C395        C412   1.413       .  A
C396        C411   1.415       .  A
C396        C404   1.387       .  A
C397        C409   1.413       .  A
C397        C405   1.386       .  A
C398        C412   1.412       .  A
C398        C406   1.386       .  A
C399        C407   1.386       .  A
C399        C410   1.412       .  A
C400        C408   1.386       .  A
C400        C411   1.412       .  A
C401        H413   1.082       .  S
C402        H414   1.082       .  S
C403        H415   1.082       .  S
C404        H416   1.082       .  S
C405        C406   1.374   1_455  A
C405        H417   1.082       .  S
C406        H418   1.082       .  S
C407        C408   1.373   1_455  A
C407        H419   1.082       .  S
C408        H420   1.082       .  S
C409        C530   1.485       .  S
C410        C593   1.482       .  S
C411        C578   1.484       .  S
C412        C545   1.486       .  S
O423        C439   1.276       .  A
O423       Zn429   2.028       .  S
C424        C497   1.487       .  S
C424        O440   1.274       .  A
C424        O437   1.276       .  A
O425        C438   1.275   1_556  A
O425       Cd432   2.072       .  S
O426        C444   1.275       .  A
O426       Cd435   2.069       .  S
O427        C441   1.274   1_556  A
O427       Cd431   2.060       .  S
O428        C439   1.273   1_556  A
O428       Cd431   2.060       .  S
Zn429       O440   2.013       .  S
Zn429       O442   2.028       .  S
Zn429       O434   1.944       .  S
O430        C441   1.275       .  A
O430       Cd435   2.077       .  S
Cd431       O433   2.064       .  S
Cd431       O434   1.991   1_556  S
Cd432       O436   2.065       .  S
Cd432       O445   2.069       .  S
Cd432       O434   1.997   1_556  S
O433        C443   1.274       .  A
O434       Cd435   2.000       .  S
Cd435       O437   2.069       .  S
O436        C443   1.274       .  A
C438        C617   1.488       .  S
C438        O442   1.276       .  A
C439        C689   1.488       .  S
C441        C665   1.488       .  S
C443        C473   1.481       .  S
C444        C641   1.488   1_554  S
C444        O445   1.275   1_554  A
O446        C462   1.274       .  A
O446       Zn452   2.012       .  S
C447        C506   1.473       .  S
C447        O463   1.273       .  A
C447        O460   1.274       .  A
O448        C461   1.275       .  A
O448       Cd455   2.068       .  S
O449        C467   1.275       .  A
O449       Cd458   2.063       .  S
O450        C464   1.277       .  A
O450       Cd454   2.078       .  S
O451        C462   1.276       .  A
O451       Cd454   2.080       .  S
Zn452       O463   2.011       .  S
Zn452       O465   2.013       .  S
Zn452       O457   1.943       .  S
O453        C464   1.276       .  A
O453       Cd458   2.078       .  S
Cd454       O456   2.080       .  S
Cd454       O457   2.001       .  S
Cd455       O459   2.068       .  S
Cd455       O468   2.077       .  S
Cd455       O457   2.000       .  S
O456        C466   1.277       .  A
O457       Cd458   1.996       .  S
Cd458       O460   2.068       .  S
O459        C466   1.275       .  A
C461        C602   1.488       .  S
C461        O465   1.273       .  A
C462        C521   1.489       .  S
C464        C554   1.493       .  S
C466        C482   1.484       .  S
C467        C569   1.489       .  S
C467        O468   1.275       .  A
C469        C470   1.402       .  A
C469        C474   1.398       .  A
C469        H479   1.084       .  S
C470        C471   1.408       .  A
C470        C475   1.481       .  S
C471        C472   1.401       .  A
C471        O476   1.373       .  S
C472        C473   1.406       .  A
C472        H477   1.084       .  S
C473        C474   1.412       .  A
C474        O478   1.372       .  S
C475        C480   1.407       .  A
C475        C484   1.403       .  A
O476        H492   0.992       .  S
O478        H489   0.992       .  S
C480        C481   1.399       .  A
C480        O485   1.372       .  S
C481        C482   1.407       .  A
C481        H486   1.083       .  S
C482        C483   1.412       .  A
C483        C484   1.400       .  A
C483        O487   1.371       .  S
C484        H488   1.084       .  S
O485        H490   0.992       .  S
O487        H491   0.992       .  S
C493        C494   1.403       .  A
C493        C498   1.399       .  A
C493        H503   1.083       .  S
C494        C495   1.409       .  A
C494        C499   1.485       .  S
C495        C496   1.398       .  A
C495        O500   1.372       .  S
C496        C497   1.406       .  A
C496        H501   1.083       .  S
C497        C498   1.415       .  A
C498        O502   1.372       .  S
C499        C504   1.410       .  A
C499        C508   1.405       .  A
O500        H516   0.991       .  S
O502        H513   0.992       .  S
C504        C505   1.400       .  A
C504        O509   1.372       .  S
C505        C506   1.402       .  A
C505        H510   1.084       .  S
C506        C507   1.408       .  A
C507        C508   1.399       .  A
C507        O511   1.372       .  S
C508        H512   1.083       .  S
O509        H514   0.992       .  S
O511        H515   0.992       .  S
C517        C518   1.402       .  A
C517        C522   1.402       .  A
C517        H527   1.083       .  S
C518        C519   1.406       .  A
C518        C523   1.482       .  S
C519        C520   1.399       .  A
C519        O524   1.372       .  S
C520        C521   1.408       .  A
C520        H525   1.083       .  S
C521        C522   1.414       .  A
C522        O526   1.371       .  S
C523        C528   1.409       .  A
C523        C532   1.404       .  A
O524        H540   0.992       .  S
O526        H537   0.992       .  S
C528        C529   1.400       .  A
C528        O533   1.372       .  S
C529        C530   1.402       .  A
C529        H534   1.084       .  S
C530        C531   1.407       .  A
C531        C532   1.400       .  A
C531        O535   1.372       .  S
C532        H536   1.084       .  S
O533        H538   0.992       .  S
O535        H539   0.992       .  S
C541        C542   1.404       .  A
C541        C546   1.401       .  A
C541        H551   1.084       .  S
C542        C543   1.410       .  A
C542        C547   1.484       .  S
C543        C544   1.402       .  A
C543        O548   1.372       .  S
C544        C545   1.402       .  A
C544        H549   1.083       .  S
C545        C546   1.407       .  A
C546        O550   1.371       .  S
C547        C552   1.406       .  A
C547        C556   1.402       .  A
O548        H564   0.992       .  S
O550        H561   0.992       .  S
C552        C553   1.400       .  A
C552        O557   1.371       .  S
C553        C554   1.409       .  A
C553        H558   1.083       .  S
C554        C555   1.416       .  A
C555        C556   1.403       .  A
C555        O559   1.371       .  S
C556        H560   1.084       .  S
O557        H562   0.992       .  S
O559        H563   0.992       .  S
C565        C566   1.403       .  A
C565        C570   1.402       .  A
C565        H575   1.084       .  S
C566        C567   1.405       .  A
C566        C571   1.481       .  S
C567        C568   1.397       .  A
C567        O572   1.372       .  S
C568        C569   1.408       .  A
C568        H573   1.083       .  S
C569        C570   1.415       .  A
C570        O574   1.371       .  S
C571        C576   1.408       .  A
C571        C580   1.404       .  A
O572        H588   0.992       .  S
O574        H585   0.992       .  S
C576        C577   1.401       .  A
C576        O581   1.372       .  S
C577        C578   1.402       .  A
C577        H582   1.083       .  S
C578        C579   1.405       .  A
C579        C580   1.399       .  A
C579        O583   1.371       .  S
C580        H584   1.084       .  S
O581        H586   0.992       .  S
O583        H587   0.992       .  S
C589        C590   1.403       .  A
C589        C594   1.400       .  A
C589        H599   1.084       .  S
C590        C591   1.407       .  A
C590        C595   1.477       .  S
C591        C592   1.399       .  A
C591        O596   1.372       .  S
C592        C593   1.401       .  A
C592        H597   1.083       .  S
C593        C594   1.406       .  A
C594        O598   1.371       .  S
C595        C600   1.405       .  A
C595        C604   1.400       .  A
O596        H612   0.992       .  S
O598        H609   0.992       .  S
C600        C601   1.398       .  A
C600        O605   1.372       .  S
C601        C602   1.408       .  A
C601        H606   1.083       .  S
C602        C603   1.416       .  A
C603        C604   1.400       .  A
C603        O607   1.372       .  S
C604        H608   1.084       .  S
O605        H610   0.992       .  S
O607        H611   0.992       .  S
C613        C614   1.400       .  A
C613        C618   1.401       .  A
C613        H623   1.084       .  S
C614        C615   1.405   1_554  A
C614        C619   1.477       .  S
C615        C616   1.401       .  A
C615        O620   1.372       .  S
C616        C617   1.408   1_556  A
C616        H621   1.083       .  S
C617        C618   1.414       .  A
C618        O622   1.371       .  S
C619        C624   1.406   1_554  A
C619        C628   1.402       .  A
O620        H636   0.992       .  S
O622        H633   0.992       .  S
C624        C625   1.399       .  A
C624        O629   1.371       .  S
C625        C626   1.403   1_556  A
C625        H630   1.084       .  S
C626        C627   1.409       .  A
C627        C628   1.401       .  A
C627        O631   1.372       .  S
C628        H632   1.084       .  S
O629        H634   0.991       .  S
O631        H635   0.992       .  S
C637        C638   1.399   1_554  A
C637        C642   1.398       .  A
C637        H647   1.084       .  S
C638        C639   1.404       .  A
C638        C643   1.475       .  S
C639        C640   1.400       .  A
C639        O644   1.372       .  S
C640        C641   1.410       .  A
C640        H645   1.083       .  S
C641        C642   1.415   1_556  A
C642        O646   1.371       .  S
C643        C648   1.407   1_556  A
C643        C652   1.402       .  A
O644        H660   0.992       .  S
O646        H657   0.992       .  S
C648        C649   1.398       .  A
C648        O653   1.372       .  S
C649        C650   1.401   1_554  A
C649        H654   1.084       .  S
C650        C651   1.408       .  A
C651        C652   1.401       .  A
C651        O655   1.372       .  S
C652        H656   1.084       .  S
O653        H658   0.991       .  S
O655        H659   0.992       .  S
C661        C662   1.402       .  A
C661        C666   1.402       .  A
C661        H671   1.084       .  S
C662        C663   1.404   1_554  A
C662        C667   1.478   1_554  S
C663        C664   1.398       .  A
C663        O668   1.372       .  S
C664        C665   1.408   1_556  A
C664        H669   1.083       .  S
C665        C666   1.415       .  A
C666        O670   1.371       .  S
C667        C672   1.409       .  A
C667        C676   1.403   1_556  A
O668        H684   0.992       .  S
O670        H681   0.992       .  S
C672        C673   1.399       .  A
C672        O677   1.371       .  S
C673        C674   1.402       .  A
C673        H678   1.084       .  S
C674        C675   1.407   1_556  A
C675        C676   1.399       .  A
C675        O679   1.371       .  S
C676        H680   1.084       .  S
O677        H682   0.991       .  S
O679        H683   0.991       .  S
C685        C686   1.401   1_556  A
C685        C690   1.399       .  A
C685        H695   1.084       .  S
C686        C687   1.407       .  A
C686        C691   1.481   1_554  S
C687        C688   1.401       .  A
C687        O692   1.372       .  S
C688        C689   1.408       .  A
C688        H693   1.083       .  S
C689        C690   1.415   1_554  A
C690        O694   1.372       .  S
C691        C696   1.409       .  A
C691        C700   1.403   1_556  A
O692        H708   0.992       .  S
O694        H705   0.992       .  S
C696        C697   1.400       .  A
C696        O701   1.372       .  S
C697        C698   1.401       .  A
C697        H702   1.083       .  S
C698        C699   1.407   1_556  A
C699        C700   1.400       .  A
C699        O703   1.372       .  S
C700        H704   1.084       .  S
O701        H706   0.992       .  S
O703        H707   0.992       .  S
