geometry optimzed in LAMMPS
_audit_creation_date              2020-11-30 
_audit_creation_method            'lammps2cif' 
_symmetry_space_group_name_H-M    'P1' 
_symmetry_Int_Tables_number       1 
_symmetry_cell_setting            triclinic 
loop_ 
_symmetry_equiv_pos_as_xyz 
  x,y,z 
_cell_length_a                    49.3965453 
_cell_length_b                    48.5234002846495 
_cell_length_c                    35.19283721765999 
_cell_angle_alpha                 89.90093810904018 
_cell_angle_beta                  89.78772933441266 
_cell_angle_gamma                 89.99327089804099 
loop_ 
_atom_site_label 
_atom_site_type_symbol 
_atom_site_fract_x 
_atom_site_fract_y 
_atom_site_fract_z 
_atom_site_charge 
N1          N  0.04071748  0.99585609  0.00352715    -0.35700
N2          N  0.49983430  0.03955642  0.00030079    -0.56200
N3          N  0.45833926  0.99708305  0.00847416    -0.35700
N4          N  0.49784866  0.45429066  0.99572076    -0.56200
C5          C  0.05644484  0.01781276  0.01195280     0.27900
C6          C  0.05779093  0.47352225  0.00168093     0.27900
C7          C  0.44273437  0.01929030  0.00040547     0.27900
C8          C  0.44197341  0.47675694  0.98647218     0.27900
C9          C  0.02240679  0.05502182  0.00162463     0.36500
C10         C  0.47806138  0.05588239  0.00629832     0.36500
C11         C  0.02191040  0.43800031  0.01187379     0.36500
C12         C  0.47511138  0.43910543  0.00018835     0.36500
C13         C  0.08165909  0.00874186  0.02387181    -0.21000
C14         C  0.08397267  0.48093641  0.99148031    -0.21000
C15         C  0.41687782  0.01050543  0.99110881    -0.21000
C16         C  0.41709721  0.48589226  0.97327706    -0.21000
C17         C  0.01494091  0.08209337  0.99466436    -0.22000
C18         C  0.48638191  0.08266028  0.01348840    -0.22000
C19         C  0.01318117  0.41152490  0.02023382    -0.22000
C20         C  0.48184680  0.41208966  0.00897994    -0.22000
C21         C  0.04940022  0.04577911  0.00635636    -0.17400
C22         C  0.04937355  0.44620691  0.00951233    -0.17400
C23         C  0.44842312  0.44886191  0.99426297    -0.17400
C24         C  0.45076061  0.04730671  0.00324765    -0.17400
H25         H  0.09888388  0.02120226  0.03186854     0.15500
H26         H  0.10121715  0.46748227  0.98740259     0.15500
H27         H  0.39967277  0.02322445  0.98373176     0.15500
H28         H  0.39972640  0.47347641  0.96577758     0.15500
H29         H  0.02814583  0.09971348  0.99107900     0.13800
H30         H  0.47373709  0.10048749  0.01869484     0.13800
H31         H  0.02552647  0.39389912  0.02765046     0.13800
H32         H  0.46817679  0.39496284  0.01358852     0.13800
H33         H  0.02234343  0.99655223  0.98940750     0.27100
H34         H  0.47751080  0.99762389  0.02040252     0.27100
N35         N  0.04033457  0.00505759  0.48577019    -0.35700
N36         N  0.49873547  0.04476572  0.48184852    -0.56200
N37         N  0.45893232  0.00099866  0.48138626    -0.35700
N38         N  0.50136548  0.45991664  0.48678202    -0.56200
C39         C  0.05428399  0.02816276  0.49478047     0.27900
C40         C  0.05815281  0.48047952  0.49432647     0.27900
C41         C  0.44300249  0.02293845  0.48941766     0.27900
C42         C  0.44399657  0.47883893  0.49282359     0.27900
C43         C  0.01867710  0.06247443  0.47903541     0.36500
C44         C  0.47632228  0.05990058  0.47511971     0.36500
C45         C  0.02410397  0.44331835  0.48343775     0.36500
C46         C  0.47969350  0.44312002  0.48279086     0.36500
C47         C  0.07938649  0.02091492  0.50923886    -0.21000
C48         C  0.08323819  0.48925393  0.50714717    -0.21000
C49         C  0.41813126  0.01389234  0.50292706    -0.21000
C50         C  0.41807922  0.48671894  0.50356120    -0.21000
C51         C  0.00978550  0.08819785  0.46725870    -0.22000
C52         C  0.48345769  0.08629773  0.46382419    -0.22000
C53         C  0.01661916  0.41635096  0.47575514    -0.22000
C54         C  0.48821574  0.41651598  0.47498138    -0.22000
C55         C  0.04578894  0.05556232  0.48742084    -0.17400
C56         C  0.05113976  0.45259928  0.48747284    -0.17400
C57         C  0.45237165  0.45114415  0.48799160    -0.17400
C58         C  0.44969708  0.05083074  0.48265868    -0.17400
H59         H  0.09531021  0.03463965  0.51851521     0.15500
H60         H  0.10035556  0.47653010  0.51490282     0.15500
H61         H  0.40091265  0.02634797  0.51117190     0.15500
H62         H  0.40119751  0.47348411  0.51083965     0.15500
H63         H  0.02202183  0.10608213  0.46062070     0.13800
H64         H  0.47001848  0.10328856  0.45742648     0.13800
H65         H  0.02981422  0.39899938  0.47019201     0.13800
H66         H  0.47570930  0.39845983  0.47086025     0.13800
H67         H  0.02261078  0.00428463  0.47035054     0.27100
H68         H  0.47702929  0.00150265  0.46673518     0.27100
O69         O  0.19372233  0.21347901  0.02331797    -0.77600
C70         C  0.24968229  0.25450627  0.10399021     0.83500
O71         O  0.21420818  0.30384114  0.97215947    -0.78700
O72         O  0.30472906  0.28432531  0.01602983    -0.80200
O73         O  0.28373091  0.18865852  0.98389131    -0.80000
O74         O  0.21567232  0.18818741  0.98052824    -0.78600
Zn75       Zn  0.21721465  0.24756642  0.03093923     1.55700
O76         O  0.30673571  0.21496276  0.02434268    -0.80000
Cd77       Cd  0.24996209  0.21182938  0.96921216     1.59700
Cd78       Cd  0.24816844  0.27934976  0.96221117     1.59600
O79         O  0.25163941  0.21983005  0.91119326    -0.80000
O80         O  0.24907052  0.24717453  0.99835578    -1.90500
Cd81       Cd  0.28248246  0.24976848  0.03015273     1.59900
O82         O  0.24899119  0.26555370  0.90615542    -0.79900
O83         O  0.27237679  0.25438811  0.08678317    -0.78600
C84         C  0.19547499  0.30139337  0.99700244     0.83900
C85         C  0.19546268  0.19199535  0.00260795     0.83600
O86         O  0.22754327  0.25101117  0.08614789    -0.77500
C87         C  0.30400120  0.19268792  0.00550428     0.84400
O88         O  0.19496222  0.28116291  0.01999130    -0.77600
C89         C  0.25068236  0.24167615  0.89103719     0.84500
C90         C  0.30143941  0.30417561  0.99272309     0.84900
O91         O  0.28131491  0.30492456  0.97023398    -0.80100
O92         O  0.19680189  0.28763727  0.47595898    -0.77600
C93         C  0.24998381  0.25671054  0.39008789     0.83500
O94         O  0.21595769  0.19406117  0.51461705    -0.78700
O95         O  0.30600053  0.21684263  0.46997015    -0.80200
O96         O  0.28620563  0.30751515  0.52375843    -0.80000
O97         O  0.21849596  0.30973877  0.52170016    -0.78600
Zn98       Zn  0.21813051  0.25318971  0.46461868     1.55700
O99         O  0.30793845  0.28604497  0.47675242    -0.80000
Cd100      Cd  0.25128575  0.28401095  0.53176201     1.59700
Cd101      Cd  0.25026764  0.21685212  0.52654804     1.59600
O102        O  0.24977233  0.27068629  0.58800999    -0.80000
O103        O  0.25045111  0.25174890  0.49617969    -1.90500
Cd104      Cd  0.28353766  0.25259889  0.46318276     1.59900
O105        O  0.25037473  0.22482173  0.58448254    -0.79900
O106        O  0.27301791  0.25576433  0.40628270    -0.78600
C107        C  0.19587995  0.19769498  0.49263813     0.83900
C108        C  0.19902872  0.30824994  0.49817390     0.83600
O109        O  0.22804629  0.25541711  0.40907076    -0.77500
C110        C  0.30629228  0.30547609  0.50099990     0.84400
O111        O  0.19414609  0.21947162  0.47235573    -0.77600
C112        C  0.24969126  0.24701189  0.60384130     0.84500
C113        C  0.30367721  0.19559066  0.49104944     0.84900
O114        O  0.28372725  0.19271092  0.51384042    -0.80100
C115        C  0.23357290  0.25828053  0.70886794    -0.10900
C116        C  0.25245529  0.24068235  0.72603190     0.11600
C117        C  0.26914645  0.22376918  0.70305005    -0.02800
C118        C  0.26751587  0.22644484  0.66324550    -0.05500
C119        C  0.24950881  0.24504730  0.64597716    -0.16300
C120        C  0.23159466  0.26065884  0.66908864     0.02600
C121        C  0.25371276  0.24021414  0.76827337     0.12600
C122        C  0.28839614  0.20289303  0.72048810     0.63200
H123        H  0.28054283  0.21413864  0.64518200     0.12600
C124        C  0.20977158  0.27889603  0.65201814     0.55400
H125        H  0.22044532  0.27034539  0.72710827     0.08400
C126        C  0.26778939  0.26062881  0.78899762    -0.05400
C127        C  0.26642473  0.26011174  0.82896907    -0.06100
C128        C  0.25197589  0.23960859  0.84878507    -0.15700
C129        C  0.23862381  0.21858391  0.82783522    -0.01300
C130        C  0.23934659  0.21967498  0.78780748    -0.08800
C131        C  0.28399550  0.28298826  0.76891661     0.65400
H132        H  0.27672674  0.27586783  0.84518137     0.10900
C133        C  0.22325089  0.19533839  0.84725421     0.63800
H134        H  0.22863287  0.20442490  0.77120998     0.08200
F135        F  0.22143352  0.30127835  0.63397404    -0.19200
F136        F  0.19215932  0.28881581  0.67947179    -0.15400
F137        F  0.19475440  0.26395424  0.62610498    -0.18900
F138        F  0.27383757  0.18343964  0.74073750    -0.22300
F139        F  0.30622385  0.21590501  0.74472443    -0.23800
F140        F  0.30340248  0.18922617  0.69307242    -0.17800
F141        F  0.20955176  0.17902503  0.82144007    -0.20300
F142        F  0.20441852  0.20602675  0.87241441    -0.21400
F143        F  0.24119754  0.17859533  0.86662039    -0.18600
F144        F  0.29776001  0.29953778  0.79437169    -0.18700
F145        F  0.26686255  0.29956603  0.74796660    -0.22500
F146        F  0.30286188  0.27122791  0.74479653    -0.24100
C147        C  0.26534381  0.27701970  0.20552443    -0.10900
C148        C  0.24649815  0.26119877  0.22584871     0.11600
C149        C  0.22688700  0.24564718  0.20606877    -0.02800
C150        C  0.22869281  0.24408352  0.16628182    -0.05500
C151        C  0.24878461  0.25833614  0.14582319    -0.16300
C152        C  0.26662020  0.27627819  0.16558113     0.02600
C153        C  0.24832371  0.26060851  0.26790235     0.12600
C154        C  0.20414917  0.23088257  0.22693054     0.63200
H155        H  0.21453759  0.23131941  0.15082489     0.12600
C156        C  0.28628890  0.29526193  0.14496858     0.55400
H157        H  0.27945517  0.28958115  0.22139667     0.08400
C158        C  0.26657517  0.24282221  0.28681617    -0.05400
C159        C  0.26648967  0.24228582  0.32676569    -0.06100
C160        C  0.24882431  0.25890344  0.34809136    -0.15700
C161        C  0.23119755  0.27744785  0.32902068    -0.01300
C162        C  0.23142929  0.27802945  0.28902349    -0.08800
C163        C  0.28610089  0.22460579  0.26477857     0.65400
H164        H  0.28009740  0.22858945  0.34175532     0.10900
C165        C  0.21269498  0.29702658  0.35055075     0.63800
H166        H  0.21809926  0.29184595  0.27375484     0.08200
F167        F  0.30712213  0.28008326  0.12910345    -0.19200
F168        F  0.29761532  0.31441848  0.16932837    -0.15400
F169        F  0.27288303  0.30961195  0.11670137    -0.18900
F170        F  0.18859350  0.24987079  0.24649052    -0.22300
F171        F  0.21471479  0.21204205  0.25236704    -0.23800
F172        F  0.18728883  0.21690501  0.20222487    -0.17800
F173        F  0.20047790  0.31590765  0.32655814    -0.20300
F174        F  0.22744980  0.31159519  0.37714266    -0.21400
F175        F  0.19245279  0.28231386  0.36869503    -0.18600
F176        F  0.30125605  0.20797714  0.28859611    -0.18700
F177        F  0.30379913  0.24084288  0.24404192    -0.22500
F178        F  0.27195903  0.20773925  0.24022148    -0.24100
C179        C  0.11119886  0.40804398  0.45727654    -0.10900
C180        C  0.11418147  0.39106164  0.48926066     0.11600
C181        C  0.09652965  0.39429525  0.52075699    -0.02800
C182        C  0.07628126  0.41465348  0.51910155    -0.05500
C183        C  0.07324090  0.43161745  0.48707788    -0.16300
C184        C  0.09070470  0.42816208  0.45539711     0.02600
C185        C  0.13625216  0.37024745  0.48937390     0.12600
C186        C  0.09925929  0.37642377  0.55601573     0.63200
H187        H  0.06264385  0.41765109  0.54290728     0.12600
C188        C  0.08741460  0.44535061  0.41962102     0.55400
H189        H  0.12513872  0.40536952  0.43374777     0.08400
C190        C  0.13337047  0.34426760  0.47182115    -0.05400
C191        C  0.15405206  0.32467114  0.47639119    -0.06100
C192        C  0.17818460  0.33062134  0.49604591    -0.15700
C193        C  0.18183430  0.35768874  0.51102174    -0.01300
C194        C  0.16043962  0.37678528  0.50790065    -0.08800
C195        C  0.10887200  0.33751303  0.44757369     0.65400
H196        H  0.15148658  0.30444349  0.46403145     0.10900
C197        C  0.20815217  0.36707534  0.52919837     0.63800
H198        H  0.16231171  0.39718245  0.52006330     0.08200
F199        F  0.10470887  0.43677616  0.39093805    -0.19200
F200        F  0.09301859  0.47266847  0.42728586    -0.15400
F201        F  0.06116147  0.44315652  0.40644415    -0.18900
F202        F  0.12372597  0.38172447  0.57347397    -0.22300
F203        F  0.09814487  0.34886694  0.54620401    -0.23800
F204        F  0.07878239  0.38147496  0.58205080    -0.17800
F205        F  0.20788091  0.39496953  0.53747810    -0.20300
F206        F  0.22954914  0.36239103  0.50454861    -0.21400
F207        F  0.21232981  0.35300366  0.56286941    -0.18600
F208        F  0.10951405  0.31062906  0.43445500    -0.18700
F209        F  0.10835273  0.35481229  0.41633206    -0.22500
F210        F  0.08532248  0.34097904  0.46834413    -0.24100
C211        C  0.39516903  0.40165201  0.46289302    -0.10900
C212        C  0.38845484  0.39100723  0.49883126     0.11600
C213        C  0.40358095  0.39920608  0.53105114    -0.02800
C214        C  0.42475070  0.41835604  0.52614926    -0.05500
C215        C  0.43110893  0.42934401  0.49031265    -0.16300
C216        C  0.41616174  0.42099553  0.45808993     0.02600
C217        C  0.36685998  0.36966593  0.50115115     0.12600
C218        C  0.39735864  0.38783521  0.57038384     0.63200
H219        H  0.43638381  0.42525501  0.55035952     0.12600
C220        C  0.42242479  0.43258058  0.41893593     0.55400
H221        H  0.38374122  0.39461439  0.43856304     0.08400
C222        C  0.33893482  0.37631999  0.50209751    -0.05400
C223        C  0.31986902  0.35469062  0.50307638    -0.06100
C224        C  0.32784393  0.32688753  0.50196016    -0.15700
C225        C  0.35586440  0.32035419  0.50124550    -0.01300
C226        C  0.37485768  0.34196625  0.50057512    -0.08800
C227        C  0.32931385  0.40605668  0.50117104     0.65400
H228        H  0.29842485  0.35934479  0.50356207     0.10900
C229        C  0.36581719  0.29078628  0.50242481     0.63800
H230        H  0.39631738  0.33743804  0.49931154     0.08200
F231        F  0.41902291  0.46086178  0.41901089    -0.19200
F232        F  0.40562091  0.42165391  0.39141122    -0.15400
F233        F  0.44886475  0.42650128  0.40904543    -0.18900
F234        F  0.40081557  0.35958123  0.57071606    -0.22300
F235        F  0.37095071  0.39388109  0.58038086    -0.23800
F236        F  0.41417760  0.39896815  0.59774053    -0.17800
F237        F  0.35948728  0.27763214  0.46881897    -0.20300
F238        F  0.35377927  0.27712590  0.53259498    -0.21400
F239        F  0.39359869  0.28928962  0.50712703    -0.18600
F240        F  0.30136859  0.40790418  0.50314697    -0.18700
F241        F  0.33765907  0.41847010  0.46775755    -0.22500
F242        F  0.33989511  0.42044153  0.53151792    -0.24100
C243        C  0.36995377  0.15591640  0.47774719    -0.10900
C244        C  0.36148945  0.12894098  0.48534403     0.11600
C245        C  0.33449228  0.12392881  0.49696998    -0.02800
C246        C  0.31618788  0.14618381  0.49750600    -0.05500
C247        C  0.32440088  0.17330188  0.48890163    -0.16300
C248        C  0.35210445  0.17838667  0.48015489     0.02600
C249        C  0.38252091  0.10717479  0.48434788     0.12600
C250        C  0.32528583  0.09553333  0.50999715     0.63200
H251        H  0.29522426  0.14253411  0.50506098     0.12600
C252        C  0.36338316  0.20729988  0.47533446     0.55400
H253        H  0.39103185  0.15923377  0.47042878     0.08400
C254        C  0.39000136  0.09366864  0.45021896    -0.05400
C255        C  0.41222988  0.07554528  0.45081576    -0.06100
C256        C  0.42738988  0.07135901  0.48392185    -0.15700
C257        C  0.42017760  0.08516114  0.51786889    -0.01300
C258        C  0.39768349  0.10289228  0.51746664    -0.08800
C259        C  0.37504156  0.09885152  0.41322039     0.65400
H260        H  0.41816925  0.06457005  0.42534133     0.10900
C261        C  0.43639239  0.08139831  0.55409876     0.63800
H262        H  0.39204620  0.11414277  0.54285185     0.08200
F263        F  0.35443952  0.21855552  0.44152526    -0.19200
F264        F  0.39141988  0.20748973  0.47473826    -0.15400
F265        F  0.35511390  0.22355529  0.50543728    -0.18900
F266        F  0.34105296  0.08681008  0.54006757    -0.22300
F267        F  0.32764182  0.07677771  0.48074334    -0.23800
F268        F  0.29855685  0.09565181  0.52200670    -0.17800
F269        F  0.46257988  0.09061244  0.54842056    -0.20300
F270        F  0.43703083  0.05388159  0.56427051    -0.21400
F271        F  0.42532842  0.09600104  0.58414155    -0.18600
F272        F  0.38585484  0.08368636  0.38352884    -0.18700
F273        F  0.37665302  0.12642825  0.40361597    -0.22500
F274        F  0.34814517  0.09162527  0.41701538    -0.24100
C275        C  0.15451511  0.13072563  0.50137667    -0.10900
C276        C  0.13027991  0.13853566  0.48401676     0.11600
C277        C  0.12723391  0.16571363  0.47019677    -0.02800
C278        C  0.14917125  0.18411541  0.47343237    -0.05500
C279        C  0.17384512  0.17642783  0.49058872    -0.16300
C280        C  0.17652938  0.14896602  0.50488230     0.02600
C281        C  0.10799333  0.11797756  0.48302490     0.12600
C282        C  0.10086430  0.17522044  0.45229959     0.63200
H283        H  0.14695022  0.20494552  0.46286727     0.12600
C284        C  0.20221706  0.13837239  0.52368997     0.55400
H285        H  0.15586181  0.10995952  0.51254566     0.08400
C286        C  0.10729338  0.09638529  0.45604856    -0.05400
C287        C  0.08626833  0.07690421  0.45832179    -0.06100
C288        C  0.06667807  0.07776126  0.48733669    -0.15700
C289        C  0.06781115  0.09909472  0.51493145    -0.01300
C290        C  0.08837208  0.11899397  0.51185471    -0.08800
C291        C  0.12890990  0.09360121  0.42548979     0.65400
H292        H  0.08518405  0.06035861  0.43775721     0.10900
C293        C  0.04853169  0.10196809  0.54844907     0.63800
H294        H  0.08957116  0.13525580  0.53289465     0.08200
F295        F  0.20054958  0.11061503  0.53262281    -0.19200
F296        F  0.20668456  0.15247944  0.55720681    -0.15400
F297        F  0.22406199  0.14173218  0.49940193    -0.18900
F298        F  0.07996516  0.17307288  0.47835491    -0.22300
F299        F  0.09496794  0.15907352  0.42109602    -0.23800
F300        F  0.10219612  0.20239413  0.44038569    -0.17800
F301        F  0.06332229  0.10366797  0.58167386    -0.20300
F302        F  0.03073848  0.08021281  0.55235783    -0.21400
F303        F  0.03372134  0.12597638  0.54425418    -0.18600
F304        F  0.12342215  0.07210262  0.40086487    -0.18700
F305        F  0.15372586  0.08854672  0.44211426    -0.22500
F306        F  0.13049854  0.11758574  0.40438408    -0.24100
C307        C  0.10737262  0.39955911  0.04069673    -0.10900
C308        C  0.11341424  0.38625122  0.00635640     0.11600
C309        C  0.09745084  0.39140768  0.97377682    -0.02800
C310        C  0.07643481  0.41080346  0.97630829    -0.05500
C311        C  0.07068035  0.42452698  0.01038407    -0.16300
C312        C  0.08605708  0.41872925  0.04333311     0.02600
C313        C  0.13525779  0.36535747  0.00581932     0.12600
C314        C  0.10239263  0.37619060  0.93668576     0.63200
H315        H  0.06426435  0.41556704  0.95161510     0.12600
C316        C  0.07970626  0.43250777  0.08098951     0.55400
H317        H  0.11944371  0.39465167  0.06543244     0.08400
C318        C  0.16265319  0.37215509  0.99867768    -0.05400
C319        C  0.18164333  0.35062429  0.99513875    -0.06100
C320        C  0.17410755  0.32287300  0.99999791    -0.15700
C321        C  0.14666344  0.31640783  0.00852179    -0.01300
C322        C  0.12777134  0.33788885  0.01131666    -0.08800
C323        C  0.17176951  0.40198415  0.99600505     0.65400
H324        H  0.20271286  0.35536351  0.98954666     0.10900
C325        C  0.13693999  0.28699083  0.01336146     0.63800
H326        H  0.10670339  0.33343798  0.01741206     0.08200
F327        F  0.08311071  0.46068736  0.07776794    -0.19200
F328        F  0.09641932  0.42314204  0.10976716    -0.15400
F329        F  0.05322105  0.42696272  0.09130760    -0.18900
F330        F  0.09771035  0.34834845  0.94182562    -0.22300
F331        F  0.12881791  0.37997357  0.92474492    -0.23800
F332        F  0.08547694  0.38541048  0.90808659    -0.17800
F333        F  0.14690771  0.27621406  0.04690147    -0.20300
F334        F  0.14574983  0.27142393  0.98292474    -0.21400
F335        F  0.10897946  0.28523040  0.01473324    -0.18600
F336        F  0.19899937  0.40409676  0.98699277    -0.18700
F337        F  0.16753622  0.41478995  0.03058775    -0.22500
F338        F  0.15725275  0.41576120  0.96836463    -0.24100
C339        C  0.33643322  0.37444006  0.98546944    -0.10900
C340        C  0.36305639  0.36715160  0.99464454     0.11600
C341        C  0.36914241  0.33964076  0.00472982    -0.02800
C342        C  0.34857526  0.31974571  0.00239384    -0.05500
C343        C  0.32191808  0.32667974  0.99217140    -0.16300
C344        C  0.31548804  0.35475327  0.98451835     0.02600
C345        C  0.38420155  0.38885447  0.99368006     0.12600
C346        C  0.39699642  0.33152955  0.01910201     0.63200
H347        H  0.35316641  0.29848069  0.00915280     0.12600
C348        C  0.28671461  0.36433367  0.97681749     0.55400
H349        H  0.33225474  0.39585019  0.97899989     0.08400
C350        C  0.39750499  0.39641079  0.95952528    -0.05400
C351        C  0.41851931  0.41593615  0.96110106    -0.06100
C352        C  0.42586162  0.42857612  0.99538343    -0.15700
C353        C  0.41156712  0.42195668  0.02926888    -0.01300
C354        C  0.39096987  0.40204547  0.02769939    -0.08800
C355        C  0.38935099  0.38401065  0.92166977     0.65400
H356        H  0.42935644  0.42170624  0.93548543     0.10900
C357        C  0.41684943  0.43502866  0.06771618     0.63800
H358        H  0.38008834  0.39657183  0.05345359     0.08200
F359        F  0.27807333  0.35434179  0.94215812    -0.19200
F360        F  0.28482403  0.39280198  0.97568779    -0.15400
F361        F  0.26962022  0.35506166  0.00533498    -0.18900
F362        F  0.40208250  0.34496013  0.05294829    -0.22300
F363        F  0.41663889  0.33870781  0.99282815    -0.23800
F364        F  0.39894966  0.30345923  0.02570940    -0.17800
F365        F  0.39353028  0.44810891  0.08001046    -0.20300
F366        F  0.43753759  0.45416684  0.06732296    -0.18400
F367        F  0.42347510  0.41463829  0.09358214    -0.18600
F368        F  0.40493030  0.39413180  0.89199529    -0.18700
F369        F  0.36259838  0.39028430  0.91413893    -0.22500
F370        F  0.39239313  0.35570131  0.92275865    -0.24100
C371        C  0.34137186  0.12387484  0.01193031    -0.10900
C372        C  0.36838381  0.13259857  0.00940777     0.11600
C373        C  0.37424162  0.16109137  0.00644874    -0.02800
C374        C  0.35260488  0.18001373  0.00633632    -0.05500
C375        C  0.32548498  0.17130114  0.00798427    -0.16300
C376        C  0.31968969  0.14273389  0.01155630     0.02600
C377        C  0.38995399  0.11116618  0.00867271     0.12600
C378        C  0.40314860  0.17141173  0.00241350     0.63200
H379        H  0.35669746  0.20185657  0.00360070     0.12600
C380        C  0.29090307  0.13210914  0.01601347     0.55400
H381        H  0.33742137  0.10195601  0.01379765     0.08400
C382        C  0.39880373  0.09756218  0.04203640    -0.05400
C383        C  0.41829271  0.07648831  0.03872401    -0.06100
C384        C  0.42931755  0.06896150  0.00339998    -0.15700
C385        C  0.42079041  0.08298655  0.97008690    -0.01300
C386        C  0.40104525  0.10372994  0.97342618    -0.08800
C387        C  0.38793040  0.10549464  0.08094067     0.65400
H388        H  0.42533611  0.06577006  0.06383601     0.10900
C389        C  0.43205871  0.07757774  0.93059689     0.63800
H390        H  0.39407572  0.11426028  0.94807677     0.08200
F391        F  0.29034104  0.10434582  0.02515296    -0.19200
F392        F  0.27689111  0.13557864  0.98241997    -0.15400
F393        F  0.27784784  0.14628538  0.04482570    -0.18900
F394        F  0.41379591  0.16281341  0.96805655    -0.22300
F395        F  0.41895453  0.16120599  0.03154777    -0.23800
F396        F  0.40450414  0.19989846  0.00353376    -0.17800
F397        F  0.41091260  0.07361179  0.90550853    -0.20300
F398        F  0.44862215  0.05468688  0.92872441    -0.21400
F399        F  0.44681579  0.10031198  0.91894145    -0.18600
F400        F  0.40090235  0.09132375  0.10979414    -0.18700
F401        F  0.36060697  0.09960120  0.08317427    -0.22500
F402        F  0.39172144  0.13336107  0.08705236    -0.24100
C403        C  0.12699024  0.15496789  0.00732269    -0.10900
C404        C  0.13521112  0.12737294  0.00726865     0.11600
C405        C  0.16312164  0.12093784  0.00474106    -0.02800
C406        C  0.18205272  0.14266769  0.00385538    -0.05500
C407        C  0.17393969  0.17044483  0.00456997    -0.16300
C408        C  0.14582068  0.17670503  0.00550271     0.02600
C409        C  0.11382856  0.10578921  0.00817396     0.12600
C410        C  0.17280655  0.09127441  0.00265411     0.63200
H411        H  0.20349338  0.13809464  0.00245768     0.12600
C412        C  0.13555323  0.20601317  0.00234469     0.55400
H413        H  0.10548551  0.15930037  0.00830693     0.08400
C414        C  0.10084708  0.09766803  0.04239018    -0.05400
C415        C  0.07982413  0.07809490  0.04069983    -0.06100
C416        C  0.07169836  0.06650503  0.00607934    -0.15700
C417        C  0.08508930  0.07415081  0.97203063    -0.01300
C418        C  0.10571026  0.09411319  0.97361151    -0.08800
C419        C  0.10856031  0.11022579  0.08032152     0.65400
H420        H  0.06932625  0.07182208  0.06636727     0.10900
C421        C  0.07768169  0.06105114  0.93433556     0.63800
H422        H  0.11574798  0.10082718  0.94779765     0.08200
F423        F  0.14212416  0.22047559  0.03478476    -0.19200
F424        F  0.10771071  0.20711790  0.99807965    -0.15400
F425        F  0.14718002  0.21841020  0.97088185    -0.18900
F426        F  0.16311339  0.07906500  0.96996801    -0.22300
F427        F  0.16355575  0.07668228  0.03386347    -0.23800
F428        F  0.20078217  0.08954389  0.00195698    -0.17800
F429        F  0.09339674  0.07111803  0.90476830    -0.20300
F430        F  0.05086082  0.06637812  0.92601987    -0.21400
F431        F  0.08154880  0.03286136  0.93634355    -0.18600
F432        F  0.09682696  0.09616443  0.11043105    -0.18700
F433        F  0.09993888  0.13730711  0.08155864    -0.22500
F434        F  0.13631171  0.10946532  0.08517985    -0.24100
N435        N  0.04229284  0.49641125  0.00459020    -0.35700
N436        N  0.50094748  0.53945280  0.99327452    -0.56200
N437        N  0.45804376  0.49871239  0.99355322    -0.35700
N438        N  0.49998084  0.95458094  0.00683756    -0.56200
C439        C  0.05822999  0.51820477  0.99578831     0.27900
C440        C  0.05553684  0.97293917  0.01027485     0.27900
C441        C  0.44377518  0.52168512  0.98478096     0.27900
C442        C  0.44285638  0.97427986  0.00386608     0.27900
C443        C  0.02332963  0.55530457  0.99947493     0.36500
C444        C  0.47951743  0.55636087  0.99843550     0.36500
C445        C  0.02044578  0.93773363  0.99502131     0.36500
C446        C  0.47837124  0.93853599  0.01484797     0.36500
C447        C  0.08424484  0.50910977  0.98781327    -0.21000
C448        C  0.08107535  0.98043890  0.02285605    -0.21000
C449        C  0.41826374  0.51422203  0.97212308    -0.21000
C450        C  0.41695499  0.98213901  0.99328056    -0.21000
C451        C  0.01546167  0.58235779  0.00555280    -0.22000
C452        C  0.48823144  0.58225325  0.00958261    -0.22000
C453        C  0.01234304  0.91150339  0.98442307    -0.22000
C454        C  0.48678529  0.91214174  0.02431241    -0.22000
C455        C  0.05047709  0.54623057  0.99717950    -0.17400
C456        C  0.04740006  0.94553360  0.00276691    -0.17400
C457        C  0.45109109  0.94668224  0.01075040    -0.17400
C458        C  0.45237020  0.54918915  0.99082122    -0.17400
H459        H  0.10171288  0.52149829  0.98042119     0.15500
H460        H  0.09775474  0.96692987  0.02995597     0.15500
H461        H  0.40198815  0.52780528  0.96360405     0.15500
H462        H  0.39980236  0.96883897  0.98793930     0.15500
H463        H  0.02836383  0.60006395  0.01009943     0.13800
H464        H  0.47590942  0.60024585  0.01521661     0.13800
H465        H  0.02508012  0.89376718  0.97906862     0.13800
H466        H  0.47424504  0.89457644  0.03145301     0.13800
H467        H  0.02297734  0.49736762  0.01602223     0.27100
H468        H  0.47625983  0.49812964  0.00811219     0.27100
N469        N  0.04242817  0.50268513  0.48689875    -0.35700
N470        N  0.49961387  0.54511283  0.48604187    -0.56200
N471        N  0.45898638  0.50155843  0.48518333    -0.35700
N472        N  0.50171973  0.96000003  0.48278360    -0.56200
C473        C  0.05718459  0.52546490  0.49502538     0.27900
C474        C  0.05628318  0.98324655  0.49443494     0.27900
C475        C  0.44298971  0.52374624  0.49146705     0.27900
C476        C  0.44454396  0.97813326  0.49019395     0.27900
C477        C  0.02148961  0.56085392  0.48403456     0.36500
C478        C  0.47731635  0.56079267  0.48065091     0.36500
C479        C  0.02326033  0.94559482  0.48227358     0.36500
C480        C  0.48029907  0.94300626  0.47824950     0.36500
C481        C  0.08264873  0.51761676  0.50748273    -0.21000
C482        C  0.08069335  0.99257927  0.50885389    -0.21000
C483        C  0.41740684  0.51498832  0.50250761    -0.21000
C484        C  0.41914061  0.98562672  0.50356930    -0.21000
C485        C  0.01272544  0.58730403  0.47569441    -0.22000
C486        C  0.48480748  0.58769911  0.47248880    -0.22000
C487        C  0.01624641  0.91843320  0.47511301    -0.22000
C488        C  0.48915058  0.91651046  0.47042130    -0.22000
C489        C  0.04881806  0.55315041  0.48962900    -0.17400
C490        C  0.04999474  0.95524545  0.48748146    -0.17400
C491        C  0.45298331  0.95067654  0.48400450    -0.17400
C492        C  0.45032538  0.55167469  0.48585301    -0.17400
H493        H  0.09918190  0.53095027  0.51569530     0.15500
H494        H  0.09778845  0.98025978  0.51783046     0.15500
H495        H  0.39995779  0.52764550  0.50902021     0.15500
H496        H  0.40281985  0.97212077  0.51230940     0.15500
H497        H  0.02507125  0.60539173  0.47072440     0.13800
H498        H  0.47159935  0.60514254  0.46763225     0.13800
H499        H  0.02974472  0.90112535  0.47087456     0.13800
H500        H  0.47685371  0.89832130  0.46616987     0.13800
H501        H  0.02399183  0.50230771  0.47287260     0.27100
H502        H  0.47791357  0.50186428  0.47244896     0.27100
O503        O  0.19352440  0.71454627  0.02440908    -0.77600
C504        C  0.24882769  0.75401881  0.10436290     0.83500
O505        O  0.21586489  0.80588400  0.97377408    -0.78700
O506        O  0.30610403  0.78116698  0.01923994    -0.80200
O507        O  0.28237792  0.68949074  0.97796488    -0.80000
O508        O  0.21449022  0.68974165  0.98015498    -0.78600
Zn509      Zn  0.21629496  0.74913884  0.03067778     1.55700
O510        O  0.30513186  0.71215536  0.02240847    -0.80000
Cd511      Cd  0.24835635  0.71339062  0.96781674     1.59700
Cd512      Cd  0.24969046  0.78094748  0.96427778     1.59600
O513        O  0.24824777  0.72271188  0.91044897    -0.80000
O514        O  0.24863170  0.74790628  0.99876229    -1.90500
Cd515      Cd  0.28194538  0.74754077  0.03106691     1.59900
O516        O  0.24982371  0.76851163  0.90746580    -0.79900
O517        O  0.27160939  0.75127088  0.08778169    -0.78600
C518        C  0.19521482  0.80258864  0.99521778     0.83900
C519        C  0.19487869  0.69325476  0.00331508     0.83600
O520        O  0.22664145  0.75335638  0.08594892    -0.77500
C521        C  0.30260001  0.69158850  0.00009547     0.84400
O522        O  0.19289264  0.78185861  0.01723037    -0.77600
C523        C  0.24894860  0.74496767  0.89125240     0.84500
C524        C  0.30425232  0.80181867  0.99697904     0.84900
O525        O  0.28428577  0.80443927  0.97437486    -0.80100
O526        O  0.19452149  0.78917257  0.47749501    -0.77600
C527        C  0.24791088  0.75737977  0.39076574     0.83500
O528        O  0.21682559  0.69466609  0.51492069    -0.78700
O529        O  0.30518560  0.71844802  0.46865630    -0.80200
O530        O  0.28579030  0.80929387  0.52334077    -0.80000
O531        O  0.21756891  0.81179909  0.52143415    -0.78600
Zn532      Zn  0.21665228  0.75478101  0.46596703     1.55700
O533        O  0.30688043  0.78737816  0.47626617    -0.80000
Cd534      Cd  0.25055327  0.78614736  0.53116121     1.59700
Cd535      Cd  0.25064471  0.71838859  0.52709276     1.59600
O536        O  0.24892722  0.77327396  0.58728002    -0.80000
O537        O  0.24958673  0.75334597  0.49652790    -1.90500
Cd538      Cd  0.28232849  0.75410893  0.46299922     1.59900
O539        O  0.25012430  0.72736401  0.58497619    -0.79900
O540        O  0.27109579  0.75696690  0.40655470    -0.78600
C541        C  0.19636816  0.69838337  0.49356637     0.83900
C542        C  0.19736259  0.81003817  0.49918312     0.83600
O543        O  0.22614289  0.75635037  0.41018344    -0.77500
C544        C  0.30580732  0.80681168  0.50053297     0.84400
O545        O  0.19360200  0.72052766  0.47430390    -0.77600
C546        C  0.24897312  0.74985945  0.60373820     0.84500
C547        C  0.30393189  0.69731651  0.49009718     0.84900
O548        O  0.28473227  0.69446854  0.51422681    -0.80100
C549        C  0.23265886  0.76326844  0.70836186    -0.10900
C550        C  0.25026782  0.74469028  0.72612977     0.11600
C551        C  0.26659714  0.72702478  0.70373837    -0.02800
C552        C  0.26520193  0.72918341  0.66388822    -0.05500
C553        C  0.24841821  0.74861752  0.64595249    -0.16300
C554        C  0.23166288  0.76595139  0.66856273     0.02600
C555        C  0.25103597  0.74444951  0.76837702     0.12600
C556        C  0.28549994  0.70613565  0.72184277     0.63200
H557        H  0.27766449  0.71594324  0.64631054     0.12600
C558        C  0.21246298  0.78691018  0.65114631     0.55400
H559        H  0.22001827  0.77613558  0.72622300     0.08400
C560        C  0.26501927  0.76487102  0.78920511    -0.05400
C561        C  0.26395935  0.76403159  0.82916715    -0.06100
C562        C  0.24932906  0.74361085  0.84888844    -0.15700
C563        C  0.23522072  0.72314446  0.82776065    -0.01300
C564        C  0.23630962  0.72412533  0.78775462    -0.08800
C565        C  0.28073887  0.78764072  0.76924330     0.65400
H566        H  0.27459735  0.77952527  0.84542238     0.10900
C567        C  0.21829289  0.70086264  0.84685555     0.63800
H568        H  0.22544862  0.70905843  0.77102723     0.08200
F569        F  0.22708264  0.80778985  0.63389936    -0.19200
F570        F  0.19581105  0.79887520  0.67822849    -0.15400
F571        F  0.19612117  0.77421885  0.62456927    -0.18900
F572        F  0.27059299  0.68672727  0.74166150    -0.22300
F573        F  0.30293591  0.71922060  0.74658585    -0.23800
F574        F  0.30097972  0.69244996  0.69495665    -0.17800
F575        F  0.20379831  0.68552374  0.82075898    -0.20300
F576        F  0.19993294  0.71276570  0.87166589    -0.21400
F577        F  0.23489968  0.68289491  0.86648528    -0.18600
F578        F  0.29478453  0.80393647  0.79469637    -0.18700
F579        F  0.26311509  0.80442090  0.74942218    -0.22500
F580        F  0.29926284  0.77638886  0.74414168    -0.24100
C581        C  0.26404775  0.77409017  0.20693737    -0.10900
C582        C  0.24519728  0.75767424  0.22636692     0.11600
C583        C  0.22615297  0.74197455  0.20568433    -0.02800
C584        C  0.22779708  0.74196298  0.16581789    -0.05500
C585        C  0.24780414  0.75693914  0.14626564    -0.16300
C586        C  0.26586169  0.77399591  0.16702722     0.02600
C587        C  0.24611263  0.75734808  0.26848581     0.12600
C588        C  0.20461016  0.72481070  0.22555784     0.63200
H589        H  0.21388680  0.72946579  0.14952302     0.12600
C590        C  0.28642803  0.79260674  0.14751952     0.55400
H591        H  0.27779038  0.78656906  0.22354794     0.08400
C592        C  0.26509596  0.74104007  0.28844795    -0.05400
C593        C  0.26492105  0.74176145  0.32836615    -0.06100
C594        C  0.24648753  0.75818670  0.34870344    -0.15700
C595        C  0.22787839  0.77504615  0.32857539    -0.01300
C596        C  0.22824217  0.77443774  0.28857997    -0.08800
C597        C  0.28556497  0.72312839  0.26763278     0.65400
H598        H  0.27916196  0.72925129  0.34413871     0.10900
C599        C  0.20821436  0.79412548  0.34891722     0.63800
H600        H  0.21437934  0.78717723  0.27249211     0.08200
F601        F  0.30618026  0.77692819  0.12996360    -0.19200
F602        F  0.29918472  0.80992351  0.17308111    -0.15400
F603        F  0.27360717  0.80888904  0.12076542    -0.18900
F604        F  0.18876711  0.74141250  0.24847019    -0.22300
F605        F  0.21674545  0.70477267  0.24763680    -0.23800
F606        F  0.18768698  0.71185446  0.19988661    -0.17800
F607        F  0.19483004  0.81134220  0.32381251    -0.20300
F608        F  0.22204913  0.81050376  0.37446905    -0.21400
F609        F  0.18892014  0.77877997  0.36808173    -0.18600
F610        F  0.30120611  0.70783699  0.29250868    -0.18700
F611        F  0.30275263  0.73951967  0.24630826    -0.22500
F612        F  0.27236553  0.70499506  0.24378706    -0.24100
C613        C  0.10915564  0.90888209  0.45951982    -0.10900
C614        C  0.11333292  0.89424439  0.49340840     0.11600
C615        C  0.09731290  0.90032495  0.52582498    -0.02800
C616        C  0.07696036  0.92050908  0.52279824    -0.05500
C617        C  0.07235956  0.93463504  0.48864160    -0.16300
C618        C  0.08860626  0.92885682  0.45640327     0.02600
C619        C  0.13468450  0.87261359  0.49405760     0.12600
C620        C  0.10166166  0.88548950  0.56334066     0.63200
H621        H  0.06430138  0.92542075  0.54704990     0.12600
C622        C  0.08372292  0.94326993  0.41874164     0.55400
H623        H  0.12189367  0.90412631  0.43528993     0.08400
C624        C  0.12988257  0.84562355  0.48065597    -0.05400
C625        C  0.15071083  0.82590917  0.48355916    -0.06100
C626        C  0.17645347  0.83247481  0.49822585    -0.15700
C627        C  0.18153347  0.86017933  0.50983926    -0.01300
C628        C  0.16034630  0.87961084  0.50773701    -0.08800
C629        C  0.10302173  0.83791582  0.46259708     0.65400
H630        H  0.14695967  0.80506855  0.47402506     0.10900
C631        C  0.20911235  0.86977908  0.52361228     0.63800
H632        H  0.16355496  0.90064394  0.51693547     0.08200
F633        F  0.10171215  0.93459536  0.39096657    -0.19200
F634        F  0.08671869  0.97141788  0.42299674    -0.15400
F635        F  0.05776288  0.93768019  0.40636309    -0.18900
F636        F  0.12761041  0.89035135  0.57625191    -0.22300
F637        F  0.09809817  0.85745864  0.55860975    -0.23800
F638        F  0.08368336  0.89433679  0.59102617    -0.17800
F639        F  0.21008391  0.89808618  0.52839608    -0.20300
F640        F  0.22885720  0.86281058  0.49733998    -0.21400
F641        F  0.21487448  0.85772876  0.55829035    -0.18600
F642        F  0.10202315  0.81029568  0.45294123    -0.18700
F643        F  0.09931500  0.85319087  0.42983046    -0.22500
F644        F  0.08192073  0.84321884  0.48742808    -0.24100
C645        C  0.39387036  0.90325163  0.46121021    -0.10900
C646        C  0.39019712  0.88987650  0.49621717     0.11600
C647        C  0.40824293  0.89520214  0.52654673    -0.02800
C648        C  0.42878087  0.91491517  0.52121674    -0.05500
C649        C  0.43203028  0.92873176  0.48649679    -0.16300
C650        C  0.41465051  0.92268509  0.45574804     0.02600
C651        C  0.36824726  0.86910087  0.49934463     0.12600
C652        C  0.40595987  0.87998216  0.56417219     0.63200
H653        H  0.44250417  0.91984670  0.54415310     0.12600
C654        C  0.41830051  0.93656523  0.41738067     0.55400
H655        H  0.38026440  0.89826599  0.43815725     0.08400
C656        C  0.34091774  0.87639475  0.50621096    -0.05400
C657        C  0.32123450  0.85535936  0.50741625    -0.06100
C658        C  0.32807281  0.82753803  0.50150420    -0.15700
C659        C  0.35574125  0.82037554  0.49602694    -0.01300
C660        C  0.37521463  0.84143418  0.49432299    -0.08800
C661        C  0.33253525  0.90629769  0.51107009     0.65400
H662        H  0.30014001  0.86063016  0.51171639     0.10900
C663        C  0.36508275  0.79066592  0.49384297     0.63800
H664        H  0.39626934  0.83648576  0.48895060     0.08200
F665        F  0.41384962  0.96458146  0.42068720    -0.19200
F666        F  0.40047543  0.92633213  0.39062029    -0.15400
F667        F  0.44435735  0.93217074  0.40421627    -0.18900
F668        F  0.41081874  0.85222648  0.55865336    -0.22300
F669        F  0.38031937  0.88331897  0.57932108    -0.23800
F670        F  0.42447646  0.88957033  0.59046541    -0.17800
F671        F  0.35660924  0.77895000  0.46016175    -0.20300
F672        F  0.35454338  0.77621044  0.52439592    -0.21400
F673        F  0.39301609  0.78844429  0.49525057    -0.18600
F674        F  0.30555933  0.90867819  0.52138149    -0.18700
F675        F  0.33634858  0.92028650  0.47722644    -0.22500
F676        F  0.34789799  0.91868041  0.53900631    -0.24100
C677        C  0.37047231  0.65825775  0.47232038    -0.10900
C678        C  0.36309505  0.63147389  0.48261490     0.11600
C679        C  0.33644482  0.62614072  0.49553475    -0.02800
C680        C  0.31773262  0.64808287  0.49688039    -0.05500
C681        C  0.32499543  0.67519395  0.48662134    -0.16300
C682        C  0.35210174  0.68035956  0.47438902     0.02600
C683        C  0.38466355  0.61011925  0.48257982     0.12600
C684        C  0.32801315  0.59749109  0.50840604     0.63200
H685        H  0.29721794  0.64418896  0.50639896     0.12600
C686        C  0.36240159  0.70911840  0.46558063     0.55400
H687        H  0.39118952  0.66176353  0.46334591     0.08400
C688        C  0.39329809  0.59663858  0.44895582    -0.05400
C689        C  0.41482130  0.57767710  0.45122647    -0.06100
C690        C  0.42814303  0.57248831  0.48564553    -0.15700
C691        C  0.41965577  0.58613657  0.51914733    -0.01300
C692        C  0.39799203  0.60485785  0.51694483    -0.08800
C693        C  0.38047760  0.60287851  0.41074169     0.65400
H694        H  0.42178664  0.56701784  0.42600128     0.10900
C695        C  0.43353511  0.58103964  0.55693058     0.63800
H696        H  0.39140414  0.61589685  0.54205381     0.08200
F697        F  0.35055328  0.71891609  0.43269001    -0.19200
F698        F  0.39020244  0.70973202  0.46037010    -0.15400
F699        F  0.35631996  0.72627216  0.49564753    -0.18900
F700        F  0.34253588  0.59002989  0.54030574    -0.22300
F701        F  0.33297931  0.57860441  0.47985876    -0.23800
F702        F  0.30074043  0.59627984  0.51746833    -0.17800
F703        F  0.42158938  0.59588727  0.58606717    -0.20300
F704        F  0.46040137  0.58880604  0.55445438    -0.21400
F705        F  0.43210160  0.55341518  0.56634385    -0.18600
F706        F  0.38928883  0.58481774  0.38288668    -0.18700
F707        F  0.38724950  0.62932949  0.39959432    -0.22500
F708        F  0.35262291  0.60075063  0.41317834    -0.24100
C709        C  0.15875927  0.62928630  0.49337784    -0.10900
C710        C  0.13197483  0.63799819  0.48825519     0.11600
C711        C  0.12637270  0.66649087  0.48442810    -0.02800
C712        C  0.14800595  0.68538075  0.48610034    -0.05500
C713        C  0.17493058  0.67675662  0.49144471    -0.16300
C714        C  0.18052777  0.64803236  0.49412240     0.02600
C715        C  0.11029107  0.61662576  0.48754877     0.12600
C716        C  0.09766287  0.67692641  0.47889865     0.63200
H717        H  0.14391931  0.70725037  0.48393746     0.12600
C718        C  0.20924743  0.63684088  0.49615280     0.55400
H719        H  0.16247065  0.60741828  0.49670373     0.08400
C720        C  0.10601923  0.59940042  0.45563418    -0.05400
C721        C  0.08565657  0.57909032  0.45761187    -0.06100
C722        C  0.06986484  0.57525207  0.49046622    -0.15700
C723        C  0.07442685  0.59230144  0.52258192    -0.01300
C724        C  0.09452475  0.61278765  0.52034013    -0.08800
C725        C  0.12299861  0.60233416  0.41977018     0.65400
H726        H  0.08200304  0.56574892  0.43352595     0.10900
C727        C  0.05915205  0.58988913  0.55996859     0.63800
H728        H  0.09830683  0.62572244  0.54485403     0.08200
F729        F  0.20992987  0.60847054  0.49201609    -0.19200
F730        F  0.22060387  0.64312401  0.53091124    -0.15400
F731        F  0.22478018  0.64815352  0.46727633    -0.18900
F732        F  0.08248434  0.67171081  0.51117841    -0.22300
F733        F  0.08587473  0.66383695  0.44827039    -0.23800
F734        F  0.09701498  0.70503080  0.47204775    -0.17800
F735        F  0.07750391  0.58676360  0.58926857    -0.20300
F736        F  0.04150606  0.56784118  0.56139839    -0.21400
F737        F  0.04451156  0.61380136  0.56594104    -0.18600
F738        F  0.11368999  0.58553262  0.39087556    -0.18700
F739        F  0.14951200  0.59509909  0.42724054    -0.22500
F740        F  0.12225913  0.62927256  0.40694722    -0.24100
C741        C  0.09633040  0.88860429  0.03124822    -0.10900
C742        C  0.11129567  0.88561078  0.99756026     0.11600
C743        C  0.10440018  0.90128459  0.96503907    -0.02800
C744        C  0.08329192  0.92057522  0.96795624    -0.05500
C745        C  0.06872795  0.92397979  0.00186614    -0.16300
C746        C  0.07502062  0.90770498  0.03404397     0.02600
C747        C  0.13337596  0.86495838  0.99681087     0.12600
C748        C  0.11896570  0.89729957  0.92736954     0.63200
H749        H  0.07781760  0.93315671  0.94371729     0.12600
C750        C  0.05945174  0.91074066  0.07108359     0.55400
H751        H  0.10161268  0.87584580  0.05539322     0.08400
C752        C  0.15978363  0.87097168  0.00991712    -0.05400
C753        C  0.17977000  0.85031144  0.00755340    -0.06100
C754        C  0.17349672  0.82361343  0.99507142    -0.15700
C755        C  0.14664817  0.81734666  0.98393851    -0.01300
C756        C  0.12712739  0.83838861  0.98424618    -0.08800
C757        C  0.16642824  0.89871411  0.02749601     0.65400
H758        H  0.20024503  0.85451541  0.01681005     0.10900
C759        C  0.13840855  0.78839400  0.97305420     0.63800
H760        H  0.10651656  0.83412858  0.97563090     0.08200
F761        F  0.06919070  0.89323456  0.09897129    -0.19200
F762        F  0.03244697  0.90460759  0.06539689    -0.15400
F763        F  0.06163466  0.93747494  0.08422814    -0.18900
F764        F  0.11469968  0.87078650  0.91440072    -0.22300
F765        F  0.14643511  0.90153455  0.93179238    -0.23800
F766        F  0.10976375  0.91544573  0.89988793    -0.17800
F767        F  0.13979617  0.77184243  0.00491603    -0.20300
F768        F  0.15553522  0.77830098  0.94518013    -0.21400
F769        F  0.11217843  0.78732549  0.95937375    -0.18600
F770        F  0.19336517  0.90045791  0.03792174    -0.18700
F771        F  0.15080666  0.90259126  0.05973309    -0.22500
F772        F  0.16112039  0.91969044  0.00198319    -0.24100
C773        C  0.34407883  0.86963876  0.99214131    -0.10900
C774        C  0.36958774  0.86094004  0.00456423     0.11600
C775        C  0.37353403  0.83312298  0.01521666    -0.02800
C776        C  0.35186626  0.81454603  0.01112885    -0.05500
C777        C  0.32621782  0.82299198  0.99802061    -0.16300
C778        C  0.32212959  0.85128798  0.98886384     0.02600
C779        C  0.39157289  0.88181030  0.00611838     0.12600
C780        C  0.40030476  0.82319842  0.03143573     0.63200
H781        H  0.35482249  0.79311274  0.01861832     0.12600
C782        C  0.29475684  0.86259074  0.97688364     0.55400
H783        H  0.34157670  0.89120443  0.98497336     0.08400
C784        C  0.40556397  0.89043078  0.97297943    -0.05400
C785        C  0.42460757  0.91185391  0.97592339    -0.06100
C786        C  0.43025166  0.92452162  0.01081174    -0.15700
C787        C  0.41707031  0.91507573  0.04429010    -0.01300
C788        C  0.39741390  0.89425394  0.04107734    -0.08800
C789        C  0.40023576  0.87720019  0.93464580     0.65400
H790        H  0.43527403  0.91906455  0.95086102     0.10900
C791        C  0.42301777  0.92564459  0.08398708     0.63800
H792        H  0.38652327  0.88753039  0.06624775     0.08200
F793        F  0.28767354  0.85196299  0.94187553    -0.19200
F794        F  0.29499470  0.89103853  0.97367689    -0.15400
F795        F  0.27533085  0.85564487  0.00365660    -0.18900
F796        F  0.40529779  0.83641086  0.06545691    -0.22300
F797        F  0.42116779  0.82883376  0.00633372    -0.23800
F798        F  0.40017203  0.79509001  0.03835238    -0.17800
F799        F  0.39973848  0.93701413  0.09925504    -0.20300
F800        F  0.44318238  0.94534405  0.08501448    -0.18400
F801        F  0.43101597  0.90377523  0.10661379    -0.18600
F802        F  0.41805124  0.88660387  0.90706774    -0.18700
F803        F  0.37422917  0.88325939  0.92296313    -0.22500
F804        F  0.40314886  0.84892432  0.93727351    -0.24100
C805        C  0.34180796  0.62378921  0.98897728    -0.10900
C806        C  0.36832836  0.63266899  0.99579933     0.11600
C807        C  0.37330328  0.66078542  0.00365789    -0.02800
C808        C  0.35118812  0.67907900  0.00537575    -0.05500
C809        C  0.32443411  0.67030029  0.99884122    -0.16300
C810        C  0.31958822  0.64196790  0.99075084     0.02600
C811        C  0.39033478  0.61171521  0.99528405     0.12600
C812        C  0.40189413  0.67147010  0.00953671     0.63200
H813        H  0.35476769  0.70069295  0.01106217     0.12600
C814        C  0.29122484  0.63045524  0.98538534     0.55400
H815        H  0.33868187  0.60219242  0.98261495     0.08400
C816        C  0.39536398  0.59447520  0.02701984    -0.05400
C817        C  0.41596908  0.57454952  0.02439573    -0.06100
C818        C  0.43144600  0.57135818  0.99122940    -0.15700
C819        C  0.42642500  0.58850736  0.95940561    -0.01300
C820        C  0.40568764  0.60839702  0.96193839    -0.08800
C821        C  0.37888014  0.59699531  0.06338761     0.65400
H822        H  0.42011335  0.56103846  0.04820454     0.10900
C823        C  0.44279913  0.58563077  0.92302456     0.63800
H824        H  0.40124434  0.62157677  0.93789151     0.08200
F825        F  0.29122770  0.60194318  0.98356899    -0.19200
F826        F  0.28027542  0.64023657  0.95188039    -0.15400
F827        F  0.27493538  0.63808107  0.01565460    -0.18900
F828        F  0.41678280  0.66799415  0.97656350    -0.22300
F829        F  0.41431785  0.65723264  0.03870616    -0.23800
F830        F  0.40214000  0.69921076  0.01868135    -0.17800
F831        F  0.43348242  0.60303414  0.89473256    -0.20300
F832        F  0.44120413  0.55887170  0.90977262    -0.21400
F833        F  0.46959296  0.59206613  0.92987542    -0.18600
F834        F  0.38794815  0.57912641  0.09127928    -0.18700
F835        F  0.35205824  0.59089838  0.05621934    -0.22500
F836        F  0.38063544  0.62351394  0.07742125    -0.24100
C837        C  0.12657997  0.65620828  0.00814350    -0.10900
C838        C  0.13478799  0.62872974  0.00502519     0.11600
C839        C  0.16264924  0.62232547  0.00186802    -0.02800
C840        C  0.18157403  0.64400649  0.00253398    -0.05500
C841        C  0.17346762  0.67170210  0.00560976    -0.16300
C842        C  0.14539501  0.67794897  0.00828797     0.02600
C843        C  0.11344715  0.60727119  0.00361622     0.12600
C844        C  0.17224880  0.59280057  0.99700963     0.63200
H845        H  0.20298410  0.63948552  0.00013091     0.12600
C846        C  0.13507814  0.70734228  0.00892625     0.55400
H847        H  0.10508122  0.66045453  0.00985816     0.08400
C848        C  0.10141804  0.59641016  0.03697061    -0.05400
C849        C  0.08145491  0.57596766  0.03334749    -0.06100
C850        C  0.07231156  0.56727800  0.99763838    -0.15700
C851        C  0.08354900  0.57904233  0.96417622    -0.01300
C852        C  0.10415478  0.59879563  0.96790651    -0.08800
C853        C  0.10857460  0.60738697  0.07602980     0.65400
H854        H  0.07209510  0.56714472  0.05845706     0.10900
C855        C  0.07448170  0.57214799  0.92410632     0.63800
H856        H  0.11297737  0.60795595  0.94259840     0.08200
F857        F  0.14304975  0.72016874  0.04209457    -0.19200
F858        F  0.10709676  0.70862515  0.00722463    -0.15400
F859        F  0.14534551  0.72132932  0.97780274    -0.18900
F860        F  0.16265404  0.58238100  0.96310153    -0.22300
F861        F  0.16278884  0.57665522  0.02660145    -0.23800
F862        F  0.20022664  0.59098634  0.99648942    -0.17800
F863        F  0.06340292  0.59546521  0.90769167    -0.20300
F864        F  0.05545245  0.55132959  0.92260749    -0.21400
F865        F  0.09666896  0.56402491  0.90278477    -0.18600
F866        F  0.09651343  0.59211866  0.10472992    -0.18700
F867        F  0.09969219  0.63431100  0.07914126    -0.22500
F868        F  0.13625456  0.60664612  0.08147834    -0.24100
N869        N  0.54112652  0.99696591  0.00206342    -0.35700
N870        N  0.00007365  0.03904452  0.00512074    -0.56200
N871        N  0.95779094  0.99715649  0.99881160    -0.35700
N872        N  0.00048527  0.45415219  0.00312803    -0.56200
C873        C  0.55619413  0.01911861  0.99226664     0.27900
C874        C  0.55538387  0.47206273  0.99246535     0.27900
C875        C  0.94262824  0.01969100  0.00663213     0.27900
C876        C  0.94387134  0.47461202  0.99080920     0.27900
C877        C  0.52195535  0.05569568  0.00446123     0.36500
C878        C  0.97848713  0.05572918  0.99969980     0.36500
C879        C  0.51897655  0.43719581  0.00221583     0.36500
C880        C  0.97814805  0.43817869  0.00628807     0.36500
C881        C  0.58111801  0.01048903  0.97846811    -0.21000
C882        C  0.58141525  0.47932084  0.98137281    -0.21000
C883        C  0.91665094  0.01152174  0.01665486    -0.21000
C884        C  0.91846089  0.48286075  0.97848669    -0.21000
C885        C  0.51420177  0.08250027  0.01255453    -0.22000
C886        C  0.98713426  0.08253512  0.99337742    -0.22000
C887        C  0.50964515  0.41087761  0.01019124    -0.22000
C888        C  0.98547377  0.41162469  0.01667413    -0.22000
C889        C  0.54896649  0.04690457  0.99852583    -0.17400
C890        C  0.54657828  0.44469134  0.99889995    -0.17400
C891        C  0.95129439  0.44688459  0.99863726    -0.17400
C892        C  0.95104756  0.04747805  0.00263110    -0.17400
H893        H  0.59776651  0.02329764  0.96896112     0.15500
H894        H  0.59812688  0.46564826  0.97494925     0.15500
H895        H  0.89967148  0.02462642  0.02388949     0.15500
H896        H  0.90131378  0.46985304  0.97192728     0.15500
H897        H  0.52720181  0.10017791  0.01675339     0.13800
H898        H  0.97469788  0.10057675  0.98864276     0.13800
H899        H  0.52162068  0.39267709  0.01598373     0.13800
H900        H  0.97225544  0.39410150  0.02101658     0.13800
H901        H  0.52328200  0.99745900  0.01773374     0.27100
H902        H  0.97685890  0.99724807  0.98636231     0.27100
N903        N  0.54158989  0.00381794  0.48121599    -0.35700
N904        N  0.99733097  0.04579478  0.48585703    -0.56200
N905        N  0.95770494  0.00174235  0.48488944    -0.35700
N906        N  0.00180280  0.45887161  0.48956852    -0.56200
C907        C  0.55563008  0.02683706  0.49036886     0.27900
C908        C  0.55779940  0.48127284  0.49156136     0.27900
C909        C  0.94155670  0.02363476  0.49220814     0.27900
C910        C  0.94449898  0.47753013  0.49630325     0.27900
C911        C  0.52013453  0.06133124  0.47485323     0.36500
C912        C  0.97489739  0.06071635  0.47843485     0.36500
C913        C  0.52360778  0.44420236  0.48096374     0.36500
C914        C  0.98019682  0.44199830  0.48544520     0.36500
C915        C  0.58066033  0.01944425  0.50493992    -0.21000
C916        C  0.58294075  0.49003134  0.50416964    -0.21000
C917        C  0.91651460  0.01453589  0.50499818    -0.21000
C918        C  0.91863514  0.48528796  0.50746154    -0.21000
C919        C  0.51129729  0.08718512  0.46352842    -0.22000
C920        C  0.98196902  0.08710320  0.46698899    -0.22000
C921        C  0.51600981  0.41723159  0.47353596    -0.22000
C922        C  0.98882557  0.41548331  0.47731345    -0.22000
C923        C  0.54722233  0.05429104  0.48322473    -0.17400
C924        C  0.55068477  0.45335897  0.48501090    -0.17400
C925        C  0.95284935  0.44991475  0.49069813    -0.17400
C926        C  0.94823846  0.05150597  0.48535183    -0.17400
H927        H  0.59661789  0.03307227  0.51437007     0.15500
H928        H  0.60006657  0.47729398  0.51184781     0.15500
H929        H  0.89910897  0.02695457  0.51254683     0.15500
H930        H  0.90178073  0.47198176  0.51461057     0.15500
H931        H  0.52359537  0.10504724  0.45699900     0.13800
H932        H  0.96849070  0.10394624  0.46003408     0.13800
H933        H  0.52912512  0.39977809  0.46821572     0.13800
H934        H  0.97639342  0.39739201  0.47304797     0.13800
H935        H  0.52387029  0.00315998  0.46580910     0.27100
H936        H  0.97603684  0.00229364  0.47081029     0.27100
O937        O  0.69505363  0.21317604  0.02748356    -0.77600
C938        C  0.75049199  0.25498790  0.10357897     0.83500
O939        O  0.71374005  0.30301957  0.97078197    -0.78700
O940        O  0.80508318  0.28390975  0.01616370    -0.80200
O941        O  0.78348188  0.18791889  0.98374599    -0.80000
O942        O  0.71553665  0.18817581  0.98339544    -0.78600
Zn943      Zn  0.71736170  0.24817931  0.03132524     1.55700
O944        O  0.80709671  0.21473953  0.02295349    -0.80000
Cd945      Cd  0.74958375  0.21152664  0.96974009     1.59700
Cd946      Cd  0.74849784  0.27931256  0.96240658     1.59600
O947        O  0.75034138  0.21943851  0.91142788    -0.80000
O948        O  0.74914505  0.24710768  0.99845133    -1.90500
Cd949      Cd  0.78279707  0.24927751  0.02967141     1.59900
O950        O  0.74950197  0.26520546  0.90653283    -0.79900
O951        O  0.77308695  0.25305903  0.08636122    -0.78600
C952        C  0.69420878  0.30031730  0.99435587     0.83900
C953        C  0.69628753  0.19145281  0.00732500     0.83600
O954        O  0.72812293  0.25324928  0.08586915    -0.77500
C955        C  0.80410822  0.19232583  0.00460541     0.84400
O956        O  0.69361999  0.28050053  0.01806934    -0.77600
C957        C  0.75013830  0.24132593  0.89124147     0.84500
C958        C  0.80188078  0.30406001  0.99333284     0.84900
O959        O  0.78162003  0.30521722  0.97103120    -0.80100
O960        O  0.69593048  0.28782315  0.47439494    -0.77600
C961        C  0.74960227  0.25731741  0.38919829     0.83500
O962        O  0.71557552  0.19467413  0.51405019    -0.78700
O963        O  0.80474046  0.21739694  0.46868682    -0.80200
O964        O  0.78535741  0.30780886  0.52326769    -0.80000
O965        O  0.71766766  0.31025569  0.51981343    -0.78600
Zn966      Zn  0.71745109  0.25346730  0.46337229     1.55700
O967        O  0.80703916  0.28626263  0.47626730    -0.80000
Cd968      Cd  0.75019416  0.28453969  0.53104108     1.59700
Cd969      Cd  0.74959387  0.21761476  0.52607806     1.59600
O970        O  0.74780638  0.27148970  0.58758577    -0.80000
O971        O  0.74952917  0.25231251  0.49543296    -1.90500
Cd972      Cd  0.78255487  0.25316419  0.46250591     1.59900
O973        O  0.74945999  0.22564435  0.58401023    -0.79900
O974        O  0.77249153  0.25659035  0.40571063    -0.78600
C975        C  0.69574930  0.19785508  0.49153821     0.83900
C976        C  0.69822907  0.30862548  0.49626522     0.83600
O977        O  0.72752476  0.25578999  0.40782066    -0.77500
C978        C  0.80545504  0.30566372  0.50051619     0.84400
O979        O  0.69388854  0.21945183  0.47090924    -0.77600
C980        C  0.74809069  0.24779001  0.60339662     0.84500
C981        C  0.80259182  0.19622887  0.48989419     0.84900
O982        O  0.78294729  0.19343144  0.51320228    -0.80100
C983        C  0.73015349  0.25669669  0.70841383    -0.10900
C984        C  0.75059550  0.24101357  0.72566770     0.11600
C985        C  0.76903708  0.22611490  0.70263322    -0.02800
C986        C  0.76730306  0.22878716  0.66283107    -0.05500
C987        C  0.74777379  0.24567624  0.64554111    -0.16300
C988        C  0.72836777  0.25935627  0.66859986     0.02600
C989        C  0.75192699  0.24062716  0.76799966     0.12600
C990        C  0.79041877  0.20749598  0.71999076     0.63200
H991        H  0.78153555  0.21794961  0.64475929     0.12600
C992        C  0.70539062  0.27594866  0.65137076     0.55400
H993        H  0.71578131  0.26723032  0.72661558     0.08400
C994        C  0.76378298  0.26244301  0.78874149    -0.05400
C995        C  0.76297819  0.26152058  0.82873658    -0.06100
C996        C  0.75101666  0.23946459  0.84875337    -0.15700
C997        C  0.73964126  0.21724686  0.82770585    -0.01300
C998        C  0.73998780  0.21856306  0.78761930    -0.08800
C999        C  0.77723974  0.28662896  0.76865762     0.65400
H1000       H  0.77185265  0.27822023  0.84480121     0.10900
C1001       C  0.72668022  0.19245099  0.84697055     0.63800
H1002       H  0.73084321  0.20229159  0.77101517     0.08200
F1003       F  0.71555395  0.29910961  0.63341495    -0.19200
F1004       F  0.68701573  0.28456862  0.67868808    -0.15400
F1005       F  0.69159175  0.25997372  0.62530131    -0.18900
F1006       F  0.77808581  0.18663210  0.74046591    -0.22300
F1007       F  0.80687270  0.22247986  0.74397381    -0.23800
F1008       F  0.80666108  0.19544964  0.69250413    -0.17800
F1009       F  0.71492341  0.17472366  0.82103744    -0.20300
F1010       F  0.70665316  0.20106132  0.87184023    -0.21400
F1011       F  0.74613568  0.17771552  0.86656299    -0.18600
F1012       F  0.78823022  0.30520203  0.79412109    -0.18700
F1013       F  0.75850084  0.30055928  0.74679355    -0.22500
F1014       F  0.79788337  0.27725839  0.74542815    -0.24100
C1015       C  0.76792436  0.27630021  0.20481181    -0.10900
C1016       C  0.74796245  0.26199022  0.22519155     0.11600
C1017       C  0.72731343  0.24780618  0.20554088    -0.02800
C1018       C  0.72896706  0.24605310  0.16579927    -0.05500
C1019       C  0.74996113  0.25883131  0.14530563    -0.16300
C1020       C  0.76911683  0.27535654  0.16489410     0.02600
C1021       C  0.74958939  0.26148296  0.26719703     0.12600
C1022       C  0.70362051  0.23471699  0.22647576     0.63200
H1023       H  0.71393495  0.23433515  0.15039360     0.12600
C1024       C  0.79019071  0.29257886  0.14406072     0.55400
H1025       H  0.78291893  0.28781491  0.22059658     0.08400
C1026       C  0.76661037  0.24264005  0.28642483    -0.05400
C1027       C  0.76617232  0.24221711  0.32635120    -0.06100
C1028       C  0.74887920  0.25949182  0.34726170    -0.15700
C1029       C  0.73209319  0.27862742  0.32788597    -0.01300
C1030       C  0.73319920  0.27960464  0.28796094    -0.08800
C1031       C  0.78491023  0.22291846  0.26477124     0.65400
H1032       H  0.77901271  0.22793792  0.34164746     0.10900
C1033       C  0.71322755  0.29804807  0.34902473     0.63800
H1034       H  0.72068668  0.29404988  0.27243303     0.08200
F1035       F  0.80986942  0.27566747  0.12861735    -0.19200
F1036       F  0.80283479  0.31104150  0.16813480    -0.15400
F1037       F  0.77798037  0.30764075  0.11541454    -0.18900
F1038       F  0.68909698  0.25486524  0.24536509    -0.22300
F1039       F  0.71289091  0.21558521  0.25249974    -0.23800
F1040       F  0.68610221  0.22147477  0.20190955    -0.17800
F1041       F  0.70161114  0.31725654  0.32493278    -0.20300
F1042       F  0.72739216  0.31221146  0.37663373    -0.21400
F1043       F  0.69255387  0.28315055  0.36588091    -0.18600
F1044       F  0.79885275  0.20546300  0.28893420    -0.18700
F1045       F  0.80370151  0.23765170  0.24380125    -0.22500
F1046       F  0.76966814  0.20686253  0.24047519    -0.24100
C1047       C  0.61084147  0.40868091  0.45546665    -0.10900
C1048       C  0.61344024  0.39143754  0.48722297     0.11600
C1049       C  0.59541961  0.39441525  0.51835607    -0.02800
C1050       C  0.57540493  0.41504308  0.51673515    -0.05500
C1051       C  0.57269963  0.43223105  0.48483736    -0.16300
C1052       C  0.59028858  0.42869951  0.45330637     0.02600
C1053       C  0.63550447  0.37062285  0.48739567     0.12600
C1054       C  0.59737592  0.37582914  0.55302517     0.63200
H1055       H  0.56157636  0.41794121  0.54034580     0.12600
C1056       C  0.58688554  0.44545927  0.41718544     0.55400
H1057       H  0.62502846  0.40616025  0.43219843     0.08400
C1058       C  0.63301850  0.34500751  0.46873099    -0.05400
C1059       C  0.65366081  0.32537435  0.47330677    -0.06100
C1060       C  0.67749908  0.33107215  0.49378714    -0.15700
C1061       C  0.68097280  0.35798432  0.50936579    -0.01300
C1062       C  0.65947696  0.37697849  0.50657415    -0.08800
C1063       C  0.60902865  0.33870191  0.44328155     0.65400
H1064       H  0.65131062  0.30534722  0.46026632     0.10900
C1065       C  0.70725543  0.36738300  0.52765276     0.63800
H1066       H  0.66115036  0.39719103  0.51936442     0.08200
F1067       F  0.60437775  0.43681415  0.38877382    -0.19200
F1068       F  0.59206321  0.47293911  0.42428010    -0.15400
F1069       F  0.56070631  0.44268724  0.40393000    -0.18900
F1070       F  0.62177164  0.38014480  0.57117694    -0.22300
F1071       F  0.59570872  0.34851169  0.54214404    -0.23800
F1072       F  0.57675120  0.38088166  0.57883026    -0.17800
F1073       F  0.70688336  0.39524056  0.53614431    -0.20300
F1074       F  0.72867052  0.36289834  0.50295255    -0.21400
F1075       F  0.71149920  0.35319282  0.56121119    -0.18600
F1076       F  0.61009144  0.31215820  0.42895979    -0.18700
F1077       F  0.60898400  0.35671079  0.41280158    -0.22500
F1078       F  0.58508541  0.34155082  0.46332313    -0.24100
C1079       C  0.89550970  0.40136564  0.46298922    -0.10900
C1080       C  0.88816616  0.39046811  0.49851910     0.11600
C1081       C  0.90302961  0.39795902  0.53127926    -0.02800
C1082       C  0.92446707  0.41690754  0.52740596    -0.05500
C1083       C  0.93149487  0.42816650  0.49196570    -0.16300
C1084       C  0.91695891  0.42029070  0.45912912     0.02600
C1085       C  0.86637525  0.36935722  0.49994781     0.12600
C1086       C  0.89633043  0.38585521  0.57004876     0.63200
H1087       H  0.93583308  0.42336675  0.55209257     0.12600
C1088       C  0.92418774  0.43186554  0.42029385     0.55400
H1089       H  0.88430216  0.39476502  0.43822743     0.08400
C1090       C  0.83851892  0.37623085  0.50142998    -0.05400
C1091       C  0.81931925  0.35474921  0.50272095    -0.06100
C1092       C  0.82711767  0.32691040  0.50133708    -0.15700
C1093       C  0.85508361  0.32018439  0.49980411    -0.01300
C1094       C  0.87418973  0.34163980  0.49885759    -0.08800
C1095       C  0.82911449  0.40602710  0.50063237     0.65400
H1096       H  0.79791174  0.35954932  0.50363332     0.10900
C1097       C  0.86490832  0.29057922  0.50041378     0.63800
H1098       H  0.89560903  0.33697662  0.49715452     0.08200
F1099       F  0.92143837  0.46021838  0.42044791    -0.19200
F1100       F  0.90766215  0.42141951  0.39208883    -0.15400
F1101       F  0.95064542  0.42518062  0.41130126    -0.18900
F1102       F  0.90002680  0.35762955  0.56948869    -0.22300
F1103       F  0.86972797  0.39148271  0.57950913    -0.23800
F1104       F  0.91266163  0.39662090  0.59824052    -0.17800
F1105       F  0.85855093  0.27784192  0.46651536    -0.20300
F1106       F  0.85279002  0.27668224  0.53029833    -0.21400
F1107       F  0.89267914  0.28890211  0.50515732    -0.18600
F1108       F  0.80120602  0.40809121  0.50326549    -0.18700
F1109       F  0.83716519  0.41826516  0.46695175    -0.22500
F1110       F  0.84017775  0.42040127  0.53065041    -0.24100
C1111       C  0.86896093  0.15709180  0.47635140    -0.10900
C1112       C  0.86059932  0.13005334  0.48360828     0.11600
C1113       C  0.83357064  0.12476303  0.49479906    -0.02800
C1114       C  0.81507149  0.14681777  0.49510046    -0.05500
C1115       C  0.82327035  0.17403881  0.48731095    -0.16300
C1116       C  0.85100334  0.17940832  0.47921168     0.02600
C1117       C  0.88176644  0.10851314  0.48351145     0.12600
C1118       C  0.82468073  0.09635763  0.50817726     0.63200
H1119       H  0.79407157  0.14300554  0.50230632     0.12600
C1120       C  0.86220943  0.20846616  0.47627199     0.55400
H1121       H  0.89008396  0.16061850  0.46948936     0.08400
C1122       C  0.88946309  0.09436160  0.45001889    -0.05400
C1123       C  0.91132416  0.07584808  0.45183169    -0.06100
C1124       C  0.92588523  0.07194280  0.48554009    -0.15700
C1125       C  0.91844663  0.08642990  0.51883370    -0.01300
C1126       C  0.89635533  0.10457946  0.51717592    -0.08800
C1127       C  0.87525465  0.09942778  0.41241736     0.65400
H1128       H  0.91752953  0.06446236  0.42682759     0.10900
C1129       C  0.93379506  0.08272825  0.55580364     0.63800
H1130       H  0.89044335  0.11625339  0.54207251     0.08200
F1131       F  0.85371951  0.22067511  0.44286463    -0.19200
F1132       F  0.89024188  0.20879325  0.47656452    -0.15400
F1133       F  0.85338499  0.22375199  0.50702096    -0.18900
F1134       F  0.83975315  0.08864228  0.53945399    -0.22300
F1135       F  0.82843113  0.07714964  0.47975901    -0.23800
F1136       F  0.79762366  0.09595276  0.51858700    -0.17800
F1137       F  0.96051533  0.09042430  0.55081862    -0.20300
F1138       F  0.93279342  0.05545760  0.56711774    -0.21400
F1139       F  0.92295220  0.09860450  0.58475882    -0.18600
F1140       F  0.88570268  0.08306492  0.38369397    -0.18700
F1141       F  0.87837833  0.12667685  0.40178860    -0.22500
F1142       F  0.84797483  0.09368514  0.41571743    -0.24100
C1143       C  0.65594044  0.12996708  0.49922698    -0.10900
C1144       C  0.63137102  0.13756751  0.48262159     0.11600
C1145       C  0.62763453  0.16485387  0.46960866    -0.02800
C1146       C  0.64924794  0.18361490  0.47273987    -0.05500
C1147       C  0.67418113  0.17620293  0.48929918    -0.16300
C1148       C  0.67758443  0.14863716  0.50287719     0.02600
C1149       C  0.60946019  0.11665898  0.48130614     0.12600
C1150       C  0.60076026  0.17416090  0.45305364     0.63200
H1151       H  0.64650797  0.20455306  0.46283640     0.12600
C1152       C  0.70365365  0.13841352  0.52107054     0.55400
H1153       H  0.65782787  0.10906730  0.50974580     0.08400
C1154       C  0.60870814  0.09575285  0.45334580    -0.05400
C1155       C  0.58777598  0.07612828  0.45496113    -0.06100
C1156       C  0.56810985  0.07646788  0.48391857    -0.15700
C1157       C  0.56917019  0.09729562  0.51225132    -0.01300
C1158       C  0.58987193  0.11707699  0.51016583    -0.08800
C1159       C  0.63002674  0.09404885  0.42221434     0.65400
H1160       H  0.58671392  0.06000607  0.43376521     0.10900
C1161       C  0.54953225  0.09992669  0.54539115     0.63800
H1162       H  0.59104256  0.13293260  0.53179159     0.08200
F1163       F  0.70277553  0.11046346  0.52900303    -0.19200
F1164       F  0.70790501  0.15199822  0.55505619    -0.15400
F1165       F  0.72529699  0.14285102  0.49674891    -0.18900
F1166       F  0.58070419  0.17229748  0.48042615    -0.22300
F1167       F  0.59388362  0.15768688  0.42257932    -0.23800
F1168       F  0.60173753  0.20119169  0.44048878    -0.17800
F1169       F  0.56392699  0.10090867  0.57900891    -0.20300
F1170       F  0.53137264  0.07841382  0.54825343    -0.21400
F1171       F  0.53512887  0.12422294  0.54151520    -0.18600
F1172       F  0.62457272  0.07308982  0.39671371    -0.18700
F1173       F  0.65511324  0.08901121  0.43803753    -0.22500
F1174       F  0.63100905  0.11856259  0.40220921    -0.24100
C1175       C  0.60383218  0.39725294  0.03057557    -0.10900
C1176       C  0.60978944  0.38351849  0.99651870     0.11600
C1177       C  0.59386371  0.38858564  0.96383837    -0.02800
C1178       C  0.57300379  0.40828209  0.96600613    -0.05500
C1179       C  0.56757313  0.42261837  0.99973809    -0.16300
C1180       C  0.58289697  0.41688934  0.03276041     0.02600
C1181       C  0.63194240  0.36280613  0.99638221     0.12600
C1182       C  0.59898222  0.37328286  0.92687756     0.63200
H1183       H  0.56089825  0.41297044  0.94122754     0.12600
C1184       C  0.57705466  0.43148240  0.07000994     0.55400
H1185       H  0.61588488  0.39253552  0.05539714     0.08400
C1186       C  0.65937940  0.37007611  0.99046030    -0.05400
C1187       C  0.67894297  0.34895362  0.98889978    -0.06100
C1188       C  0.67204534  0.32114128  0.99488537    -0.15700
C1189       C  0.64451745  0.31412734  0.00200327    -0.01300
C1190       C  0.62497783  0.33520348  0.00245545    -0.08800
C1191       C  0.66801183  0.40004053  0.98732435     0.65400
H1192       H  0.70003050  0.35413871  0.98431723     0.10900
C1193       C  0.63549443  0.28462562  0.00883069     0.63800
H1194       H  0.60389188  0.33035993  0.00776980     0.08200
F1195       F  0.58216995  0.45935551  0.06618836    -0.19200
F1196       F  0.59294379  0.42146577  0.09927390    -0.15400
F1197       F  0.55021316  0.42772809  0.08005353    -0.18900
F1198       F  0.59540848  0.34531027  0.93239996    -0.22300
F1199       F  0.62514518  0.37802689  0.91445073    -0.23800
F1200       F  0.58145638  0.38163531  0.89849829    -0.17800
F1201       F  0.64473396  0.27583075  0.04385138    -0.20300
F1202       F  0.64558402  0.26770252  0.98051818    -0.21400
F1203       F  0.60757157  0.28212661  0.00883712    -0.18600
F1204       F  0.69534201  0.40254969  0.97914622    -0.18700
F1205       F  0.66299932  0.41322090  0.02143137    -0.22500
F1206       F  0.65373729  0.41318437  0.95886926    -0.24100
C1207       C  0.83831243  0.37379501  0.98696603    -0.10900
C1208       C  0.86487792  0.36587745  0.99567732     0.11600
C1209       C  0.87046954  0.33806976  0.00478415    -0.02800
C1210       C  0.84940781  0.31867817  0.00263531    -0.05500
C1211       C  0.82279251  0.32624921  0.99299820    -0.16300
C1212       C  0.81694179  0.35451281  0.98582115     0.02600
C1213       C  0.88653517  0.38717272  0.99551422     0.12600
C1214       C  0.89846295  0.32903859  0.01754922     0.63200
H1215       H  0.85363013  0.29724914  0.00885381     0.12600
C1216       C  0.78836058  0.36463303  0.97811230     0.55400
H1217       H  0.83450878  0.39534987  0.98098723     0.08400
C1218       C  0.90044464  0.39475579  0.96183922    -0.05400
C1219       C  0.92199933  0.41369721  0.96430123    -0.06100
C1220       C  0.92936094  0.42574011  0.99905301    -0.15700
C1221       C  0.91483584  0.41865992  0.03256778    -0.01300
C1222       C  0.89355499  0.39953097  0.03003428    -0.08800
C1223       C  0.89200636  0.38338155  0.92348469     0.65400
H1224       H  0.93296315  0.41978913  0.93893657     0.10900
C1225       C  0.92045889  0.43062412  0.07159881     0.63800
H1226       H  0.88239076  0.39390880  0.05548702     0.08200
F1227       F  0.77982508  0.35524413  0.94307786    -0.19200
F1228       F  0.78689320  0.39313319  0.97777389    -0.15400
F1229       F  0.77093387  0.35519884  0.00613345    -0.18900
F1230       F  0.90480799  0.34186047  0.05141496    -0.22300
F1231       F  0.91758642  0.33605082  0.99044887    -0.23800
F1232       F  0.89987281  0.30084187  0.02332040    -0.17800
F1233       F  0.89815243  0.44561252  0.08336235    -0.20300
F1234       F  0.94279534  0.44770972  0.07264659    -0.18400
F1235       F  0.92474441  0.40933882  0.09708978    -0.18600
F1236       F  0.90874009  0.39258438  0.89449107    -0.18700
F1237       F  0.86589066  0.39177054  0.91545204    -0.22500
F1238       F  0.89290841  0.35490635  0.92390781    -0.24100
C1239       C  0.84265919  0.12525095  0.02090435    -0.10900
C1240       C  0.86869141  0.13270603  0.00847489     0.11600
C1241       C  0.87349871  0.15987654  0.99531257    -0.02800
C1242       C  0.85192665  0.17885684  0.99533401    -0.05500
C1243       C  0.82574847  0.17124131  0.00686815    -0.16300
C1244       C  0.82099511  0.14416374  0.02050278     0.02600
C1245       C  0.89016606  0.11118341  0.00779738     0.12600
C1246       C  0.90103811  0.16851983  0.98009090     0.63200
H1247       H  0.85512023  0.19967131  0.98508337     0.12600
C1248       C  0.79336193  0.13550401  0.03529942     0.55400
H1249       H  0.83939355  0.10428488  0.03048918     0.08400
C1250       C  0.90465839  0.10332365  0.04075716    -0.05400
C1251       C  0.92434241  0.08242394  0.03769603    -0.06100
C1252       C  0.92979920  0.06927656  0.00299441    -0.15700
C1253       C  0.91533396  0.07725502  0.96998973    -0.01300
C1254       C  0.89574597  0.09814397  0.97312993    -0.08800
C1255       C  0.89954987  0.11711579  0.07882151     0.65400
H1256       H  0.93570312  0.07605037  0.06246695     0.10900
C1257       C  0.92015031  0.06531348  0.93065922     0.63800
H1258       H  0.88451568  0.10435451  0.94811442     0.08200
F1259       F  0.79398110  0.10949466  0.05153340    -0.19200
F1260       F  0.77497863  0.13508718  0.00579082    -0.15400
F1261       F  0.78460985  0.15389092  0.06272745    -0.18900
F1262       F  0.90627855  0.15487674  0.94641702    -0.22300
F1263       F  0.92106152  0.16215480  0.00599234    -0.23800
F1264       F  0.90221109  0.19657176  0.97304407    -0.17800
F1265       F  0.89562995  0.05788282  0.91477567    -0.20300
F1266       F  0.93660603  0.04230962  0.93059337    -0.21400
F1267       F  0.93207617  0.08523402  0.90798849    -0.18600
F1268       F  0.91662172  0.10711127  0.10675575    -0.18700
F1269       F  0.87318913  0.11242923  0.09039706    -0.22500
F1270       F  0.90377014  0.14518613  0.07570087    -0.24100
C1271       C  0.63159585  0.15022363  0.03153554    -0.10900
C1272       C  0.63618744  0.12618119  0.01064020     0.11600
C1273       C  0.66071914  0.12295243  0.99041538    -0.02800
C1274       C  0.67989369  0.14435054  0.99145733    -0.05500
C1275       C  0.67518554  0.16922684  0.01114851    -0.16300
C1276       C  0.65053482  0.17197097  0.03230973     0.02600
C1277       C  0.61404366  0.10557756  0.00830728     0.12600
C1278       C  0.66623770  0.09738440  0.96669090     0.63200
H1279       H  0.69858451  0.14191814  0.97570316     0.12600
C1280       C  0.64335718  0.19770095  0.05476073     0.55400
H1281       H  0.61248986  0.15201958  0.04652151     0.08400
C1282       C  0.60952940  0.08554872  0.03691315    -0.05400
C1283       C  0.58794718  0.06693471  0.03242357    -0.06100
C1284       C  0.57126883  0.06749964  0.00016706    -0.15700
C1285       C  0.57647723  0.08696621  0.97094346    -0.01300
C1286       C  0.59729371  0.10626628  0.97624796    -0.08800
C1287       C  0.62707869  0.08409994  0.07222028     0.65400
H1288       H  0.58374207  0.05175541  0.05427230     0.10900
C1289       C  0.56153576  0.08803629  0.93335293     0.63800
H1290       H  0.60105431  0.12168252  0.95450338     0.08200
F1291       F  0.66229342  0.20205148  0.08297573    -0.19200
F1292       F  0.61824204  0.19566754  0.07219188    -0.15400
F1293       F  0.64253411  0.22011018  0.03056263    -0.18900
F1294       F  0.64869647  0.09668916  0.93621205    -0.22300
F1295       F  0.66259038  0.07387063  0.98832361    -0.23800
F1296       F  0.69244673  0.09701442  0.95263520    -0.17800
F1297       F  0.54770448  0.11273695  0.93071006    -0.20300
F1298       F  0.54330345  0.06675362  0.92862510    -0.21400
F1299       F  0.58014681  0.08659629  0.90393002    -0.18600
F1300       F  0.62129195  0.06099524  0.09393801    -0.18700
F1301       F  0.62267297  0.10719039  0.09431631    -0.22500
F1302       F  0.65414926  0.08295699  0.06227983    -0.24100
N1303       N  0.54065172  0.49512883  0.99874849    -0.35700
N1304       N  0.00134763  0.53921394  0.99404451    -0.56200
N1305       N  0.95937814  0.49721718  0.99674491    -0.35700
N1306       N  0.99861892  0.95405166  0.00027927    -0.56200
C1307       C  0.55695032  0.51692506  0.99148754     0.27900
C1308       C  0.55619634  0.97432121  0.99468857     0.27900
C1309       C  0.94425417  0.51965170  0.98799781     0.27900
C1310       C  0.94192886  0.97474213  0.00450324     0.27900
C1311       C  0.52323263  0.55440110  0.00143538     0.36500
C1312       C  0.97950802  0.55584283  0.99746346     0.36500
C1313       C  0.52210007  0.93857687  0.01153522     0.36500
C1314       C  0.97667281  0.93837398  0.99299397     0.36500
C1315       C  0.58239336  0.50762868  0.98075142    -0.21000
C1316       C  0.58112668  0.98218400  0.98000692    -0.21000
C1317       C  0.91870075  0.51121283  0.97678537    -0.21000
C1318       C  0.91622721  0.98318185  0.01539437    -0.21000
C1319       C  0.51598097  0.58103273  0.01136891    -0.22000
C1320       C  0.98769941  0.58265860  0.00461948    -0.22000
C1321       C  0.51451128  0.91216796  0.02217922    -0.22000
C1322       C  0.98456468  0.91186578  0.98335733    -0.22000
C1323       C  0.55009966  0.54493233  0.99701463    -0.17400
C1324       C  0.54893821  0.94695984  0.00391567    -0.17400
C1325       C  0.94963461  0.94693203  0.99856388    -0.17400
C1326       C  0.95234602  0.54757820  0.99193223    -0.17400
H1327       H  0.59997314  0.51997097  0.97373433     0.15500
H1328       H  0.59782932  0.96894419  0.97201158     0.15500
H1329       H  0.90186543  0.52416077  0.96854222     0.15500
H1330       H  0.89887271  0.97028269  0.02152252     0.15500
H1331       H  0.52931120  0.59790330  0.01864766     0.13800
H1332       H  0.97501147  0.60067056  0.00813202     0.13800
H1333       H  0.52756533  0.89465401  0.02736751     0.13800
H1334       H  0.97165689  0.89447127  0.97695547     0.13800
H1335       H  0.52176885  0.49600028  0.01173711     0.27100
H1336       H  0.97795357  0.49749303  0.01015965     0.27100
N1337       N  0.54207820  0.50351287  0.48418628    -0.35700
N1338       N  0.99999254  0.54404237  0.48954786    -0.56200
N1339       N  0.95944761  0.50032327  0.48896687    -0.35700
N1340       N  0.00072639  0.96100794  0.48709759    -0.56200
C1341       C  0.55687093  0.52629283  0.49220014     0.27900
C1342       C  0.55740118  0.98191411  0.48995007     0.27900
C1343       C  0.94347655  0.52243231  0.49578035     0.27900
C1344       C  0.94331263  0.97884381  0.49348915     0.27900
C1345       C  0.52123206  0.56184355  0.48099868     0.36500
C1346       C  0.97759771  0.55958976  0.48436912     0.36500
C1347       C  0.52416361  0.94450865  0.47756940     0.36500
C1348       C  0.97942647  0.94384706  0.48272622     0.36500
C1349       C  0.58237342  0.51840024  0.50448961    -0.21000
C1350       C  0.58181722  0.99110302  0.50453182    -0.21000
C1351       C  0.91795891  0.51356341  0.50696406    -0.21000
C1352       C  0.91765423  0.98627236  0.50595542    -0.21000
C1353       C  0.51262692  0.58837231  0.47275705    -0.22000
C1354       C  0.98490804  0.58649881  0.47586003    -0.22000
C1355       C  0.51697077  0.91746299  0.46994235    -0.22000
C1356       C  0.98844826  0.91731923  0.47549022    -0.22000
C1357       C  0.54852106  0.55402246  0.48688846    -0.17400
C1358       C  0.55095981  0.95395197  0.48298179    -0.17400
C1359       C  0.95204234  0.95139767  0.48800932    -0.17400
C1360       C  0.95070733  0.55037534  0.49015866    -0.17400
H1361       H  0.59895392  0.53170917  0.51259054     0.15500
H1362       H  0.59881556  0.97868610  0.51361639     0.15500
H1363       H  0.90051884  0.52614848  0.51378422     0.15500
H1364       H  0.90126382  0.97272546  0.51430516     0.15500
H1365       H  0.52507596  0.60643270  0.46812692     0.13800
H1366       H  0.97158934  0.60386272  0.47105939     0.13800
H1367       H  0.53036912  0.90012424  0.46533256     0.13800
H1368       H  0.97627516  0.89901209  0.47149715     0.13800
H1369       H  0.52358920  0.50316918  0.47034920     0.27100
H1370       H  0.97827755  0.50077543  0.47591889     0.27100
O1371       O  0.69513577  0.71132484  0.03006706    -0.77600
C1372       C  0.75061604  0.75219712  0.10736962     0.83500
O1373       O  0.71314140  0.80334905  0.97891753    -0.78700
O1374       O  0.80530906  0.78175212  0.02015428    -0.80200
O1375       O  0.78303500  0.68933667  0.97930296    -0.80000
O1376       O  0.71507005  0.68791732  0.98380200    -0.78600
Zn1377     Zn  0.71678316  0.74670166  0.03515105     1.55700
O1378       O  0.80652528  0.71238842  0.02267378    -0.80000
Cd1379     Cd  0.74825548  0.71253162  0.97046362     1.59700
Cd1380     Cd  0.74770235  0.78015658  0.96829722     1.59600
O1381       O  0.74706949  0.72261794  0.91325070    -0.80000
O1382       O  0.74847314  0.74673052  0.00201809    -1.90500
Cd1383     Cd  0.78256276  0.74719022  0.03277585     1.59900
O1384       O  0.74785987  0.76850889  0.91134667    -0.79900
O1385       O  0.77323085  0.75036015  0.09004785    -0.78600
C1386       C  0.69321302  0.79970800  0.00154921     0.83900
C1387       C  0.69622338  0.69029345  0.00851431     0.83600
O1388       O  0.72818841  0.75089038  0.08967583    -0.77500
C1389       C  0.80373921  0.69174397  0.00052575     0.84400
O1390       O  0.69212250  0.77889802  0.02357833    -0.77600
C1391       C  0.74724506  0.74516399  0.89462919     0.84500
C1392       C  0.80180629  0.80290632  0.99921255     0.84900
O1393       O  0.78100061  0.80546623  0.97815378    -0.80100
O1394       O  0.69600385  0.78816345  0.47909136    -0.77600
C1395       C  0.75024988  0.75680869  0.39368420     0.83500
O1396       O  0.71723723  0.69406729  0.51803113    -0.78700
O1397       O  0.80646862  0.71737089  0.47300740    -0.80200
O1398       O  0.78655148  0.80842411  0.52659900    -0.80000
O1399       O  0.71831885  0.81104453  0.52349939    -0.78600
Zn1400     Zn  0.71831691  0.75392151  0.46824260     1.55700
O1401       O  0.80840565  0.78614429  0.48053528    -0.80000
Cd1402     Cd  0.75129297  0.78539497  0.53400582     1.59700
Cd1403     Cd  0.75129811  0.71757980  0.53061583     1.59600
O1404       O  0.74961707  0.77277615  0.59021714    -0.80000
O1405       O  0.75077123  0.75243624  0.49965845    -1.90500
Cd1406     Cd  0.78383195  0.75307836  0.46667075     1.59900
O1407       O  0.75089456  0.72685388  0.58859016    -0.79900
O1408       O  0.77329972  0.75623014  0.40986656    -0.78600
C1409       C  0.69728624  0.69782076  0.49570558     0.83900
C1410       C  0.69842658  0.80910519  0.50070243     0.83600
O1411       O  0.72835219  0.75567936  0.41275687    -0.77500
C1412       C  0.80693233  0.80573568  0.50450087     0.84400
O1413       O  0.69517731  0.71980916  0.47597612    -0.77600
C1414       C  0.74973284  0.74949858  0.60704560     0.84500
C1415       C  0.80484903  0.69627205  0.49446871     0.84900
O1416       O  0.78533854  0.69345110  0.51811652    -0.80100
C1417       C  0.73275253  0.76420783  0.71115251    -0.10900
C1418       C  0.74975760  0.74544974  0.72964324     0.11600
C1419       C  0.76599295  0.72724382  0.70795702    -0.02800
C1420       C  0.76524511  0.72915767  0.66800976    -0.05500
C1421       C  0.74894723  0.74868040  0.64932796    -0.16300
C1422       C  0.73220093  0.76646789  0.67129752     0.02600
C1423       C  0.74981972  0.74540881  0.77190161     0.12600
C1424       C  0.78381797  0.70579271  0.72695989     0.63200
H1425       H  0.77765607  0.71550563  0.65097094     0.12600
C1426       C  0.71341774  0.78747992  0.65314155     0.55400
H1427       H  0.72015019  0.77748032  0.72849460     0.08400
C1428       C  0.76414903  0.76541838  0.79305014    -0.05400
C1429       C  0.76278875  0.76445942  0.83299291    -0.06100
C1430       C  0.74744608  0.74439235  0.85231155    -0.15700
C1431       C  0.73255792  0.72473706  0.83088994    -0.01300
C1432       C  0.73408818  0.72569219  0.79092645    -0.08800
C1433       C  0.78065693  0.78777593  0.77345691     0.65400
H1434       H  0.77385226  0.77946610  0.84955655     0.10900
C1435       C  0.71432741  0.70344011  0.84970779     0.63800
H1436       H  0.72285303  0.71104554  0.77397711     0.08200
F1437       F  0.72846426  0.80825372  0.63637550    -0.19200
F1438       F  0.69632293  0.79954517  0.67958522    -0.15400
F1439       F  0.69749223  0.77483309  0.62602911    -0.18900
F1440       F  0.76780168  0.68673643  0.74570905    -0.22300
F1441       F  0.80084178  0.71825924  0.75285837    -0.23800
F1442       F  0.79970955  0.69180146  0.70086639    -0.17800
F1443       F  0.69884784  0.68933500  0.82341106    -0.20300
F1444       F  0.69680461  0.71629139  0.87480942    -0.21400
F1445       F  0.72981989  0.68428935  0.86899549    -0.18600
F1446       F  0.79440738  0.80404311  0.79926707    -0.18700
F1447       F  0.76375692  0.80471188  0.75266273    -0.22500
F1448       F  0.79950682  0.77600188  0.74931189    -0.24100
C1449       C  0.76596143  0.77312383  0.20952743    -0.10900
C1450       C  0.74733215  0.75666967  0.22930301     0.11600
C1451       C  0.72842567  0.74056766  0.20898890    -0.02800
C1452       C  0.73020250  0.73995247  0.16915872    -0.05500
C1453       C  0.74998058  0.75503748  0.14927273    -0.16300
C1454       C  0.76772430  0.77264986  0.16963405     0.02600
C1455       C  0.74843852  0.75659358  0.27139094     0.12600
C1456       C  0.70653305  0.72411034  0.22923073     0.63200
H1457       H  0.71632994  0.72721898  0.15314776     0.12600
C1458       C  0.78803712  0.79129186  0.14972007     0.55400
H1459       H  0.77960125  0.78591658  0.22585256     0.08400
C1460       C  0.76777802  0.74072822  0.29137673    -0.05400
C1461       C  0.76774359  0.74166779  0.33128908    -0.06100
C1462       C  0.74906043  0.75782204  0.35159099    -0.15700
C1463       C  0.73016227  0.77432949  0.33138216    -0.01300
C1464       C  0.73035340  0.77345096  0.29140905    -0.08800
C1465       C  0.78826255  0.72280759  0.27059897     0.65400
H1466       H  0.78217273  0.72940024  0.34708271     0.10900
C1467       C  0.71044897  0.79345964  0.35153887     0.63800
H1468       H  0.71624212  0.78586638  0.27527044     0.08200
F1469       F  0.80837468  0.77560848  0.13353449    -0.19200
F1470       F  0.79995533  0.80963464  0.17471543    -0.15400
F1471       F  0.77523162  0.80651196  0.12178495    -0.18900
F1472       F  0.68961892  0.74176758  0.24892785    -0.22300
F1473       F  0.71813032  0.70575319  0.25444216    -0.23800
F1474       F  0.69083053  0.70923654  0.20400272    -0.17800
F1475       F  0.69683178  0.81032839  0.32622563    -0.20300
F1476       F  0.72431611  0.81019452  0.37660640    -0.21400
F1477       F  0.69132389  0.77821493  0.37117302    -0.18600
F1478       F  0.80455649  0.70828944  0.29552768    -0.18700
F1479       F  0.80485738  0.73905276  0.24816342    -0.22500
F1480       F  0.77497890  0.70399678  0.24785243    -0.24100
C1481       C  0.61007888  0.90697411  0.45661417    -0.10900
C1482       C  0.61398100  0.89269130  0.49086301     0.11600
C1483       C  0.59774935  0.89917823  0.52292234    -0.02800
C1484       C  0.57737412  0.91926387  0.51913694    -0.05500
C1485       C  0.57315500  0.93316027  0.48471015    -0.16300
C1486       C  0.58976820  0.92716585  0.45291202     0.02600
C1487       C  0.63546818  0.87121528  0.49244339     0.12600
C1488       C  0.60199302  0.88498620  0.56093121     0.63200
H1489       H  0.56452329  0.92442557  0.54308928     0.12600
C1490       C  0.58578487  0.94188306  0.41526431     0.55400
H1491       H  0.62304220  0.90200074  0.43270539     0.08400
C1492       C  0.63097447  0.84399865  0.47972062    -0.05400
C1493       C  0.65188671  0.82447251  0.48363267    -0.06100
C1494       C  0.67737805  0.83137822  0.49887467    -0.15700
C1495       C  0.68210411  0.85922776  0.51006791    -0.01300
C1496       C  0.66088689  0.87853164  0.50669867    -0.08800
C1497       C  0.60435851  0.83582847  0.46134896     0.65400
H1498       H  0.64839567  0.80349796  0.47446330     0.10900
C1499       C  0.70932148  0.86907619  0.52483969     0.63800
H1500       H  0.66384957  0.89970250  0.51544909     0.08200
F1501       F  0.60370330  0.93261458  0.38776731    -0.19200
F1502       F  0.58983412  0.96986688  0.41986135    -0.15400
F1503       F  0.55975933  0.93741620  0.40231396    -0.18900
F1504       F  0.62779004  0.89037387  0.57404532    -0.22300
F1505       F  0.59877952  0.85684484  0.55700268    -0.23800
F1506       F  0.58373206  0.89406433  0.58810426    -0.17800
F1507       F  0.71000307  0.89740658  0.52946271    -0.20300
F1508       F  0.72962986  0.86213680  0.49941683    -0.21400
F1509       F  0.71445048  0.85719366  0.55982467    -0.18600
F1510       F  0.60349765  0.80798461  0.45293967    -0.18700
F1511       F  0.60107192  0.85032618  0.42782921    -0.22500
F1512       F  0.58294027  0.84168245  0.48539925    -0.24100
C1513       C  0.89458753  0.90197583  0.46520100    -0.10900
C1514       C  0.89050400  0.88943561  0.50069675     0.11600
C1515       C  0.90758690  0.89617204  0.53156223    -0.02800
C1516       C  0.92771401  0.91628078  0.52608487    -0.05500
C1517       C  0.93135350  0.92925690  0.49082847    -0.16300
C1518       C  0.91479964  0.92198804  0.45970383     0.02600
C1519       C  0.86883854  0.86841620  0.50400575     0.12600
C1520       C  0.90470592  0.88205904  0.56991562     0.63200
H1521       H  0.94080297  0.92218650  0.54931336     0.12600
C1522       C  0.91865441  0.93525323  0.42096680     0.55400
H1523       H  0.88166350  0.89596412  0.44184119     0.08400
C1524       C  0.84128967  0.87558012  0.50903169    -0.05400
C1525       C  0.82181992  0.85438912  0.51029186    -0.06100
C1526       C  0.82904883  0.82654904  0.50579658    -0.15700
C1527       C  0.85687287  0.81951558  0.50180650    -0.01300
C1528       C  0.87621888  0.84072215  0.50053302    -0.08800
C1529       C  0.83247388  0.90549951  0.51178656     0.65400
H1530       H  0.80058738  0.85952713  0.51335949     0.10900
C1531       C  0.86642029  0.78983993  0.50052484     0.63800
H1532       H  0.89744461  0.83589469  0.49646300     0.08200
F1533       F  0.91388262  0.96326902  0.42330918    -0.19200
F1534       F  0.90116269  0.92439808  0.39423449    -0.15400
F1535       F  0.94486679  0.93092861  0.40840478    -0.18900
F1536       F  0.91037130  0.85429765  0.56626598    -0.22300
F1537       F  0.87862277  0.88516391  0.58358734    -0.23800
F1538       F  0.92228436  0.89294874  0.59651703    -0.17800
F1539       F  0.85849489  0.77768893  0.46687532    -0.20300
F1540       F  0.85551802  0.77566406  0.53106457    -0.21400
F1541       F  0.89433787  0.78780096  0.50273115    -0.18600
F1542       F  0.80511871  0.90786115  0.51984730    -0.18700
F1543       F  0.83748029  0.91868253  0.47763213    -0.22500
F1544       F  0.84661164  0.91872740  0.54025222    -0.24100
C1545       C  0.87178790  0.65753298  0.47956435    -0.10900
C1546       C  0.86394832  0.63049513  0.48761438     0.11600
C1547       C  0.83690046  0.62488880  0.49848413    -0.02800
C1548       C  0.81820783  0.64684713  0.49977408    -0.05500
C1549       C  0.82591243  0.67417960  0.49154583    -0.16300
C1550       C  0.85344600  0.67962572  0.48178579     0.02600
C1551       C  0.88536592  0.60904184  0.48741894     0.12600
C1552       C  0.82804852  0.59593277  0.50931087     0.63200
H1553       H  0.79736024  0.64279634  0.50757934     0.12600
C1554       C  0.86413150  0.70861732  0.47590160     0.55400
H1555       H  0.89279436  0.66121442  0.47220020     0.08400
C1556       C  0.89430225  0.59611352  0.45355205    -0.05400
C1557       C  0.91555179  0.57686114  0.45572089    -0.06100
C1558       C  0.92851265  0.57111126  0.49022726    -0.15700
C1559       C  0.91996563  0.58446493  0.52391411    -0.01300
C1560       C  0.89833357  0.60322359  0.52188996    -0.08800
C1561       C  0.88235583  0.60350526  0.41516550     0.65400
H1562       H  0.92272101  0.56655952  0.43032300     0.10900
C1563       C  0.93381510  0.57907546  0.56165010     0.63800
H1564       H  0.89153058  0.61389403  0.54719156     0.08200
F1565       F  0.85391333  0.71956436  0.44262386    -0.19200
F1566       F  0.89211799  0.70930088  0.47343664    -0.15400
F1567       F  0.85657816  0.72474378  0.50641360    -0.18900
F1568       F  0.84182634  0.58743531  0.54137922    -0.22300
F1569       F  0.83356936  0.57787910  0.47995127    -0.23800
F1570       F  0.80058431  0.59462870  0.51709404    -0.17800
F1571       F  0.92236843  0.59432981  0.59077602    -0.20300
F1572       F  0.96087715  0.58609263  0.55901282    -0.21400
F1573       F  0.93167938  0.55152071  0.57117881    -0.18600
F1574       F  0.89131289  0.58588260  0.38687098    -0.18700
F1575       F  0.88994787  0.63002925  0.40548593    -0.22500
F1576       F  0.85442930  0.60201843  0.41640640    -0.24100
C1577       C  0.65895722  0.62914570  0.49286193    -0.10900
C1578       C  0.63237202  0.63821433  0.48680676     0.11600
C1579       C  0.62716546  0.66681747  0.48337321    -0.02800
C1580       C  0.64896285  0.68542248  0.48629781    -0.05500
C1581       C  0.67565525  0.67644555  0.49272162    -0.16300
C1582       C  0.68087845  0.64765416  0.49516515     0.02600
C1583       C  0.61040021  0.61714333  0.48552533     0.12600
C1584       C  0.59869624  0.67769969  0.47702928     0.63200
H1585       H  0.64516822  0.70735759  0.48434281     0.12600
C1586       C  0.70939462  0.63619935  0.49889417     0.55400
H1587       H  0.66236837  0.60721089  0.49596979     0.08400
C1588       C  0.60642235  0.59971909  0.45372699    -0.05400
C1589       C  0.58597320  0.57948343  0.45551978    -0.06100
C1590       C  0.56962589  0.57607920  0.48793191    -0.15700
C1591       C  0.57363118  0.59359093  0.51972509    -0.01300
C1592       C  0.59399468  0.61381043  0.51779771    -0.08800
C1593       C  0.62367144  0.60245098  0.41809417     0.65400
H1594       H  0.58262896  0.56590751  0.43159311     0.10900
C1595       C  0.55734294  0.59210416  0.55635467     0.63800
H1596       H  0.59745603  0.62696627  0.54218083     0.08200
F1597       F  0.70998382  0.60785365  0.49445673    -0.19200
F1598       F  0.71959958  0.64219661  0.53445171    -0.15400
F1599       F  0.72597289  0.64756162  0.47122410    -0.18900
F1600       F  0.58296248  0.67269664  0.50884456    -0.22300
F1601       F  0.58716537  0.66484161  0.44602400    -0.23800
F1602       F  0.59856836  0.70582008  0.47024200    -0.17800
F1603       F  0.57484181  0.58993109  0.58682045    -0.20300
F1604       F  0.53979878  0.56998222  0.55798162    -0.21400
F1605       F  0.54243152  0.61607515  0.56020356    -0.18600
F1606       F  0.61453316  0.58553405  0.38920833    -0.18700
F1607       F  0.65011923  0.59522153  0.42598687    -0.22500
F1608       F  0.62304084  0.62933114  0.40503034    -0.24100
C1609       C  0.60512672  0.89901930  0.03672387    -0.10900
C1610       C  0.61128728  0.88515429  0.00286467     0.11600
C1611       C  0.59666479  0.89123304  0.96931494    -0.02800
C1612       C  0.57643848  0.91159909  0.97074983    -0.05500
C1613       C  0.57061424  0.92574220  0.00449185    -0.16300
C1614       C  0.58510564  0.91957493  0.03804062     0.02600
C1615       C  0.63266278  0.86371710  0.00368441     0.12600
C1616       C  0.60230417  0.87612747  0.93234904     0.63200
H1617       H  0.56489041  0.91666908  0.94558622     0.12600
C1618       C  0.57943173  0.93479414  0.07487375     0.55400
H1619       H  0.61628330  0.89362999  0.06210839     0.08400
C1620       C  0.66048373  0.87032749  0.00108170    -0.05400
C1621       C  0.67943782  0.84870490  0.00008917    -0.06100
C1622       C  0.67150565  0.82094506  0.00309080    -0.15700
C1623       C  0.64356159  0.81452713  0.00743278    -0.01300
C1624       C  0.62463461  0.83619415  0.00751412    -0.08800
C1625       C  0.67006592  0.90007042  0.99991399     0.65400
H1626       H  0.70081594  0.85338197  0.99769267     0.10900
C1627       C  0.63347633  0.78510322  0.01103976     0.63800
H1628       H  0.60321309  0.83188509  0.01047753     0.08200
F1629       F  0.58418718  0.96264723  0.06985836    -0.19200
F1630       F  0.59574012  0.92557024  0.10416149    -0.15400
F1631       F  0.55275737  0.93095417  0.08565054    -0.18900
F1632       F  0.59634285  0.84846460  0.93661971    -0.22300
F1633       F  0.62926657  0.87892370  0.92241666    -0.23800
F1634       F  0.58683679  0.88630624  0.90274854    -0.17800
F1635       F  0.64218688  0.77393675  0.04502612    -0.20300
F1636       F  0.64316925  0.76958016  0.98100332    -0.21400
F1637       F  0.60547498  0.78362807  0.01062937    -0.18600
F1638       F  0.69791690  0.90190132  0.99613731    -0.18700
F1639       F  0.66277957  0.91322213  0.03323062    -0.22500
F1640       F  0.65844762  0.91370707  0.96956260    -0.24100
C1641       C  0.83893893  0.87210331  0.99916758    -0.10900
C1642       C  0.86592321  0.86325590  0.00091703     0.11600
C1643       C  0.87170640  0.83476632  0.00394264    -0.02800
C1644       C  0.85011553  0.81592036  0.00258414    -0.05500
C1645       C  0.82306294  0.82460532  0.99932665    -0.16300
C1646       C  0.81723172  0.85328505  0.99856476     0.02600
C1647       C  0.88761774  0.88447150  0.99960931     0.12600
C1648       C  0.90048064  0.82427975  0.00879118     0.63200
H1649       H  0.85425046  0.79402864  0.00406460     0.12600
C1650       C  0.78839942  0.86418934  0.99838862     0.55400
H1651       H  0.83506512  0.89406098  0.99803392     0.08400
C1652       C  0.89556290  0.89733265  0.96515322    -0.05400
C1653       C  0.91576448  0.91777081  0.96618475    -0.06100
C1654       C  0.92834235  0.92529643  0.00030028    -0.15700
C1655       C  0.92077275  0.91198219  0.03467004    -0.01300
C1656       C  0.90007046  0.89215559  0.03369744    -0.08800
C1657       C  0.88269846  0.88954189  0.92754068     0.65400
H1658       H  0.92198006  0.92812040  0.94029007     0.10900
C1659       C  0.93381517  0.91737480  0.07298493     0.63800
H1660       H  0.89362935  0.88237747  0.05994469     0.08200
F1661       F  0.77638834  0.85855716  0.96385143    -0.19200
F1662       F  0.78755555  0.89243366  0.00390049    -0.15400
F1663       F  0.77360002  0.85197844  0.02731640    -0.18900
F1664       F  0.91102287  0.83387992  0.04259164    -0.22300
F1665       F  0.91651108  0.83331501  0.97900802    -0.23800
F1666       F  0.90157477  0.79576656  0.00968686    -0.17800
F1667       F  0.91411430  0.92548186  0.09865526    -0.20300
F1668       F  0.95356898  0.93750551  0.07208868    -0.18400
F1669       F  0.94556389  0.89325158  0.08590972    -0.18600
F1670       F  0.89538606  0.90235105  0.89713704    -0.18700
F1671       F  0.85578118  0.89730880  0.92750595    -0.22500
F1672       F  0.88442973  0.86137853  0.92208761    -0.24100
C1673       C  0.84239045  0.62343170  0.99186678    -0.10900
C1674       C  0.86919868  0.63236040  0.99576081     0.11600
C1675       C  0.87460668  0.66083516  0.00010057    -0.02800
C1676       C  0.85262997  0.67937476  0.00196548    -0.05500
C1677       C  0.82560419  0.67047193  0.99867400    -0.16300
C1678       C  0.82036359  0.64185971  0.99351977     0.02600
C1679       C  0.89098637  0.61107219  0.99550910     0.12600
C1680       C  0.90344732  0.67158778  0.00225997     0.63200
H1681       H  0.85645745  0.70120272  0.00536309     0.12600
C1682       C  0.79177812  0.63038462  0.99119673     0.55400
H1683       H  0.83889527  0.60159009  0.98790684     0.08400
C1684       C  0.89696770  0.59511623  0.02820735    -0.05400
C1685       C  0.91691830  0.57445715  0.02562939    -0.06100
C1686       C  0.93099215  0.56941519  0.99166608    -0.15700
C1687       C  0.92502929  0.58530060  0.95892015    -0.01300
C1688       C  0.90478653  0.60574302  0.96133618    -0.08800
C1689       C  0.88230806  0.59990312  0.06565395     0.65400
H1690       H  0.92184486  0.56202766  0.05024292     0.10900
C1691       C  0.94008234  0.58071665  0.92176620     0.63800
H1692       H  0.89961389  0.61789182  0.93656388     0.08200
F1693       F  0.79155772  0.60184389  0.99142143    -0.19200
F1694       F  0.77958192  0.63898501  0.95793579    -0.15400
F1695       F  0.77674951  0.63928727  0.02206945    -0.18900
F1696       F  0.91708251  0.66546048  0.96896440    -0.22300
F1697       F  0.91684224  0.65950192  0.03239498    -0.23800
F1698       F  0.90420521  0.69988090  0.00722139    -0.17800
F1699       F  0.92958914  0.59662885  0.89264578    -0.20300
F1700       F  0.93825908  0.55336081  0.91115346    -0.21400
F1701       F  0.96703339  0.58764333  0.92604351    -0.18600
F1702       F  0.89211981  0.58305753  0.09424821    -0.18700
F1703       F  0.85502132  0.59446357  0.06151863    -0.22500
F1704       F  0.88555775  0.62694729  0.07700844    -0.24100
C1705       C  0.63061489  0.64956757  0.02734243    -0.10900
C1706       C  0.63688610  0.62444178  0.01004524     0.11600
C1707       C  0.66271724  0.62048407  0.99359433    -0.02800
C1708       C  0.68160561  0.64217540  0.99507612    -0.05500
C1709       C  0.67536480  0.66787688  0.01166106    -0.16300
C1710       C  0.64931604  0.67144958  0.02874607     0.02600
C1711       C  0.61512146  0.60346892  0.00723597     0.12600
C1712       C  0.66997338  0.59374840  0.97352901     0.63200
H1713       H  0.70138442  0.63927698  0.98236919     0.12600
C1714       C  0.64047484  0.69826088  0.04722902     0.55400
H1715       H  0.61049130  0.65198357  0.03920071     0.08400
C1716       C  0.60866188  0.58538445  0.03754319    -0.05400
C1717       C  0.58748025  0.56637592  0.03260410    -0.06100
C1718       C  0.57248761  0.56533401  0.99883653    -0.15700
C1719       C  0.57875837  0.58371985  0.96867464    -0.01300
C1720       C  0.59984706  0.60273827  0.97375776    -0.08800
C1721       C  0.62372617  0.58646828  0.07505852     0.65400
H1722       H  0.58213142  0.55228328  0.05532733     0.10900
C1723       C  0.56419627  0.58438823  0.93072519     0.63800
H1724       H  0.60464174  0.61715066  0.95111722     0.08200
F1725       F  0.65656309  0.70378273  0.07838128    -0.19200
F1726       F  0.61388473  0.69729347  0.05980329    -0.15400
F1727       F  0.64244689  0.71944365  0.02112284    -0.18900
F1728       F  0.65383547  0.59052094  0.94184997    -0.22300
F1729       F  0.66600422  0.57158973  0.99762677    -0.23800
F1730       F  0.69674177  0.59340221  0.96174762    -0.17800
F1731       F  0.55093662  0.60935057  0.92700596    -0.20300
F1732       F  0.54548707  0.56349402  0.92638100    -0.21400
F1733       F  0.58298570  0.58200088  0.90166308    -0.18600
F1734       F  0.61444142  0.56670979  0.10037588    -0.18700
F1735       F  0.62021831  0.61201626  0.09165013    -0.22500
F1736       F  0.65103139  0.58198252  0.06912096    -0.24100
loop_ 
_geom_bond_atom_site_label_1 
_geom_bond_atom_site_label_2 
_geom_bond_distance 
_geom_bond_site_symmetry_2 
_ccdc_geom_bond_type 
N1           H33   1.037   1_554  S
N1            C5   1.353   1_565  A
N1          C440   1.352       .  A
N2           C10   1.352       .  A
N2          C877   1.353       .  A
N3           H34   1.038       .  S
N3            C7   1.355   1_565  A
N3          C442   1.355       .  A
N4           C12   1.352   1_556  A
N4          C879   1.353   1_556  A
C5           C13   1.387       .  A
C5           C21   1.415       .  A
C6          N435   1.353       .  A
C6           C22   1.415       .  A
C6           C14   1.388   1_554  A
C7           C15   1.387   1_554  A
C7           C24   1.420       .  A
C8          N437   1.353       .  A
C8           C23   1.417       .  A
C8           C16   1.388       .  A
C9          N870   1.354       .  A
C9           C21   1.417       .  A
C9           C17   1.386   1_554  A
C10          C24   1.416       .  A
C10          C18   1.387       .  A
C11         N872   1.353       .  A
C11          C19   1.386       .  A
C11          C22   1.416       .  A
C12          C20   1.387       .  A
C12          C23   1.417   1_554  A
C13         C448   1.374   1_545  A
C13          H25   1.082       .  S
C14         C447   1.373       .  A
C14          H26   1.082       .  S
C15         C450   1.378   1_545  A
C15          H27   1.082       .  S
C16         C449   1.376       .  A
C16          H28   1.082       .  S
C17         C886   1.375   1_455  A
C17          H29   1.082       .  S
C18         C885   1.374       .  A
C18          H30   1.082       .  S
C19         C888   1.375   1_455  A
C19          H31   1.082       .  S
C20         C887   1.375       .  A
C20          H32   1.082       .  S
C21         C416   1.492       .  S
C22         C311   1.488       .  S
C23         C352   1.487       .  S
C24         C384   1.492       .  S
N35          H67   1.032       .  S
N35          C39   1.355       .  A
N35         C474   1.354   1_545  A
N36          C44   1.350       .  A
N36         C911   1.350       .  A
N37          H68   1.031       .  S
N37          C41   1.353       .  A
N37         C476   1.353   1_545  A
N38          C46   1.353       .  A
N38         C913   1.352       .  A
C39          C47   1.387       .  A
C39          C55   1.418       .  A
C40         N469   1.354       .  A
C40          C56   1.418       .  A
C40          C48   1.388       .  A
C41          C49   1.387       .  A
C41          C58   1.413       .  A
C42         N471   1.354       .  A
C42          C57   1.416       .  A
C42          C50   1.387       .  A
C43         N904   1.350   1_455  A
C43          C55   1.413       .  A
C43          C51   1.386       .  A
C44          C58   1.411       .  A
C44          C52   1.386       .  A
C45         N906   1.352       .  A
C45          C53   1.387       .  A
C45          C56   1.417       .  A
C46          C54   1.385       .  A
C46          C57   1.416       .  A
C47         C482   1.377   1_545  A
C47          H59   1.082       .  S
C48         C481   1.377       .  A
C48          H60   1.082       .  S
C49         C484   1.373   1_545  A
C49          H61   1.082       .  S
C50         C483   1.373       .  A
C50          H62   1.082       .  S
C51         C920   1.375   1_455  A
C51          H63   1.082       .  S
C52         C919   1.376       .  A
C52          H64   1.082       .  S
C53         C922   1.374   1_455  A
C53          H65   1.082       .  S
C54         C921   1.374       .  A
C54          H66   1.082       .  S
C55         C288   1.492       .  S
C56         C183   1.493       .  S
C57         C215   1.493       .  S
C58         C256   1.486       .  S
O69          C85   1.276       .  A
O69         Zn75   2.039       .  S
C70         C151   1.485       .  S
C70          O86   1.275       .  A
C70          O83   1.272       .  A
O71          C84   1.276       .  A
O71         Cd78   2.085       .  S
O72          C90   1.275   1_554  A
O72         Cd81   2.064       .  S
O73          C87   1.275   1_556  A
O73         Cd77   2.078       .  S
O74          C85   1.276   1_556  A
O74         Cd77   2.083       .  S
Zn75         O86   2.018       .  S
Zn75         O88   2.004       .  S
Zn75         O80   1.944   1_554  S
O76          C87   1.276       .  A
O76         Cd81   2.080       .  S
Cd77         O79   2.079       .  S
Cd77         O80   2.000       .  S
Cd78         O82   2.085       .  S
Cd78         O91   2.075       .  S
Cd78         O80   2.013       .  S
O79          C89   1.275       .  A
O80         Cd81   2.002   1_556  S
Cd81         O83   2.065       .  S
O82          C89   1.278       .  A
C84         C320   1.487       .  S
C84          O88   1.271   1_556  A
C85         C407   1.493       .  S
C87         C375   1.487       .  S
C89         C128   1.492       .  S
C90         C343   1.489       .  S
C90          O91   1.273       .  A
O92         C108   1.276       .  A
O92         Zn98   2.015       .  S
C93         C160   1.483       .  S
C93         O109   1.272       .  A
C93         O106   1.275       .  A
O94         C107   1.272       .  A
O94        Cd101   2.069       .  S
O95         C113   1.274       .  A
O95        Cd104   2.073       .  S
O96         C110   1.277       .  A
O96        Cd100   2.086       .  S
O97         C108   1.273       .  A
O97        Cd100   2.076       .  S
Zn98        O109   2.016       .  S
Zn98        O111   2.037       .  S
Zn98        O103   1.949       .  S
O99         C110   1.275       .  A
O99        Cd104   2.079       .  S
Cd100       O102   2.082       .  S
Cd100       O103   2.007       .  S
Cd101       O105   2.076       .  S
Cd101       O114   2.074       .  S
Cd101       O103   2.001       .  S
O102        C112   1.276       .  A
O103       Cd104   2.002       .  S
Cd104       O106   2.076       .  S
O105        C112   1.276       .  A
C107        C279   1.502       .  S
C107        O111   1.277       .  A
C108        C192   1.498       .  S
C110        C224   1.488       .  S
C112        C119   1.486       .  S
C113        C247   1.491       .  S
C113        O114   1.276       .  A
C115        C116   1.402       .  A
C115        C120   1.408       .  A
C115        H125   1.083       .  S
C116        C117   1.416       .  A
C116        C121   1.488       .  S
C117        C118   1.409       .  A
C117        C122   1.519       .  S
C118        C119   1.406       .  A
C118        H123   1.083       .  S
C119        C120   1.420       .  A
C120        C124   1.519       .  S
C121        C126   1.415       .  A
C121        C130   1.401       .  A
C122        F138   1.382       .  S
C122        F139   1.382       .  S
C122        F140   1.385       .  S
C124        F135   1.382       .  S
C124        F136   1.385       .  S
C124        F137   1.384       .  S
C126        C127   1.408       .  A
C126        C131   1.520       .  S
C127        C128   1.407       .  A
C127        H132   1.083       .  S
C128        C129   1.423       .  A
C129        C130   1.410       .  A
C129        C133   1.520       .  S
C130        H134   1.083       .  S
C131        F144   1.384       .  S
C131        F145   1.382       .  S
C131        F146   1.382       .  S
C133        F141   1.385       .  S
C133        F142   1.383       .  S
C133        F143   1.383       .  S
C147        C148   1.400       .  A
C147        C152   1.407       .  A
C147        H157   1.083       .  S
C148        C149   1.414       .  A
C148        C153   1.483       .  S
C149        C150   1.405       .  A
C149        C154   1.519       .  S
C150        C151   1.405       .  A
C150        H155   1.083       .  S
C151        C152   1.423       .  A
C152        C156   1.520       .  S
C153        C158   1.415       .  A
C153        C162   1.400       .  A
C154        F170   1.383       .  S
C154        F171   1.382       .  S
C154        F172   1.385       .  S
C156        F167   1.382       .  S
C156        F168   1.385       .  S
C156        F169   1.384       .  S
C158        C159   1.406       .  A
C158        C163   1.520       .  S
C159        C160   1.404       .  A
C159        H164   1.083       .  S
C160        C161   1.421       .  A
C161        C162   1.408       .  A
C161        C165   1.520       .  S
C162        H166   1.083       .  S
C163        F176   1.384       .  S
C163        F177   1.382       .  S
C163        F178   1.383       .  S
C165        F173   1.385       .  S
C165        F174   1.384       .  S
C165        F175   1.382       .  S
C179        C180   1.402       .  A
C179        C184   1.408       .  A
C179        H189   1.083       .  S
C180        C181   1.417       .  A
C180        C185   1.486       .  S
C181        C182   1.407       .  A
C181        C186   1.519       .  S
C182        C183   1.403       .  A
C182        H187   1.083       .  S
C183        C184   1.417       .  A
C184        C188   1.518       .  S
C185        C190   1.412       .  A
C185        C194   1.400       .  A
C186        F202   1.382       .  S
C186        F203   1.383       .  S
C186        F204   1.384       .  S
C188        F199   1.384       .  S
C188        F200   1.381       .  S
C188        F201   1.383       .  S
C190        C191   1.405       .  A
C190        C195   1.519       .  S
C191        C192   1.411       .  A
C191        H196   1.082       .  S
C192        C193   1.428       .  A
C193        C194   1.410       .  A
C193        C197   1.521       .  S
C194        H198   1.083       .  S
C195        F208   1.385       .  S
C195        F209   1.382       .  S
C195        F210   1.382       .  S
C197        F205   1.385       .  S
C197        F206   1.384       .  S
C197        F207   1.383       .  S
C211        C212   1.404       .  A
C211        C216   1.408       .  A
C211        H221   1.083       .  S
C212        C213   1.418       .  A
C212        C217   1.489       .  S
C213        C214   1.409       .  A
C213        C218   1.520       .  S
C214        C215   1.403       .  A
C214        H219   1.083       .  S
C215        C216   1.415       .  A
C216        C220   1.518       .  S
C217        C222   1.417       .  A
C217        C226   1.401       .  A
C218        F234   1.382       .  S
C218        F235   1.381       .  S
C218        F236   1.384       .  S
C220        F231   1.383       .  S
C220        F232   1.384       .  S
C220        F233   1.382       .  S
C222        C223   1.411       .  A
C222        C227   1.519       .  S
C223        C224   1.406       .  A
C223        H228   1.083       .  S
C224        C225   1.420       .  A
C225        C226   1.407       .  A
C225        C229   1.517       .  S
C226        H230   1.083       .  S
C227        F240   1.385       .  S
C227        F241   1.382       .  S
C227        F242   1.381       .  S
C229        F237   1.382       .  S
C229        F238   1.383       .  S
C229        F239   1.385       .  S
C243        C244   1.399       .  A
C243        C248   1.405       .  A
C243        H253   1.084       .  S
C244        C245   1.414       .  A
C244        C249   1.482       .  S
C245        C246   1.408       .  A
C245        C250   1.520       .  S
C246        C247   1.409       .  A
C246        H251   1.083       .  S
C247        C248   1.423       .  A
C248        C252   1.519       .  S
C249        C254   1.417       .  A
C249        C258   1.403       .  A
C250        F266   1.382       .  S
C250        F267   1.380       .  S
C250        F268   1.385       .  S
C252        F263   1.382       .  S
C252        F264   1.385       .  S
C252        F265   1.382       .  S
C254        C255   1.407       .  A
C254        C259   1.520       .  S
C255        C256   1.402       .  A
C255        H260   1.083       .  S
C256        C257   1.415       .  A
C257        C258   1.405       .  A
C257        C261   1.519       .  S
C258        H262   1.083       .  S
C259        F272   1.385       .  S
C259        F273   1.382       .  S
C259        F274   1.380       .  S
C261        F269   1.382       .  S
C261        F270   1.382       .  S
C261        F271   1.385       .  S
C275        C276   1.398       .  A
C275        C280   1.408       .  A
C275        H285   1.083       .  S
C276        C277   1.413       .  A
C276        C281   1.486       .  S
C277        C278   1.409       .  A
C277        C282   1.520       .  S
C278        C279   1.412       .  A
C278        H283   1.082       .  S
C279        C280   1.430       .  A
C280        C284   1.522       .  S
C281        C286   1.416       .  A
C281        C290   1.401       .  A
C282        F298   1.382       .  S
C282        F299   1.382       .  S
C282        F300   1.384       .  S
C284        F295   1.385       .  S
C284        F296   1.383       .  S
C284        F297   1.384       .  S
C286        C287   1.406       .  A
C286        C291   1.519       .  S
C287        C288   1.405       .  A
C287        H292   1.083       .  S
C288        C289   1.422       .  A
C289        C290   1.405       .  A
C289        C293   1.520       .  S
C290        H294   1.085       .  S
C291        F304   1.385       .  S
C291        F305   1.382       .  S
C291        F306   1.382       .  S
C293        F301   1.384       .  S
C293        F302   1.380       .  S
C293        F303   1.384       .  S
C307        C308   1.402       .  A
C307        C312   1.408       .  A
C307        H317   1.083       .  S
C308        C309   1.416   1_554  A
C308        C313   1.481       .  S
C309        C310   1.404       .  A
C309        C314   1.520       .  S
C310        C311   1.401   1_556  A
C310        H315   1.083       .  S
C311        C312   1.416       .  A
C312        C316   1.517       .  S
C313        C318   1.414   1_554  A
C313        C322   1.396       .  A
C314        F330   1.382       .  S
C314        F331   1.382       .  S
C314        F332   1.384       .  S
C316        F327   1.382       .  S
C316        F328   1.385       .  S
C316        F329   1.383       .  S
C318        C319   1.409       .  A
C318        C323   1.519       .  S
C319        C320   1.407       .  A
C319        H324   1.083       .  S
C320        C321   1.422   1_556  A
C321        C322   1.402       .  A
C321        C325   1.515       .  S
C322        H326   1.083       .  S
C323        F336   1.385       .  S
C323        F337   1.383   1_556  S
C323        F338   1.382       .  S
C325        F333   1.382       .  S
C325        F334   1.381   1_554  S
C325        F335   1.384       .  S
C339        C340   1.401       .  A
C339        C344   1.409       .  A
C339        H349   1.083       .  S
C340        C341   1.413   1_556  A
C340        C345   1.484       .  S
C341        C342   1.404       .  A
C341        C346   1.519       .  S
C342        C343   1.407   1_554  A
C342        H347   1.083       .  S
C343        C344   1.424       .  A
C344        C348   1.521       .  S
C345        C350   1.416       .  A
C345        C354   1.400   1_556  A
C346        F362   1.383       .  S
C346        F363   1.382   1_554  S
C346        F364   1.385       .  S
C348        F359   1.382       .  S
C348        F360   1.385       .  S
C348        F361   1.384   1_556  S
C350        C351   1.407       .  A
C350        C355   1.519       .  S
C351        C352   1.403       .  A
C351        H356   1.083       .  S
C352        C353   1.420   1_556  A
C353        C354   1.404       .  A
C353        C357   1.519       .  S
C354        H358   1.085       .  S
C355        F368   1.384       .  S
C355        F369   1.383       .  S
C355        F370   1.382       .  S
C357        F365   1.383       .  S
C357        F366   1.381       .  S
C357        F367   1.383       .  S
C371        C372   1.402       .  A
C371        C376   1.409       .  A
C371        H381   1.083       .  S
C372        C373   1.416       .  A
C372        C377   1.489       .  S
C373        C374   1.409       .  A
C373        C378   1.519       .  S
C374        C375   1.406       .  A
C374        H379   1.083       .  S
C375        C376   1.421       .  A
C376        C380   1.520       .  S
C377        C382   1.417       .  A
C377        C386   1.402   1_554  A
C378        F394   1.382   1_554  S
C378        F395   1.382       .  S
C378        F396   1.385       .  S
C380        F391   1.385       .  S
C380        F392   1.382   1_554  S
C380        F393   1.384       .  S
C382        C383   1.409       .  A
C382        C387   1.519       .  S
C383        C384   1.404       .  A
C383        H388   1.083       .  S
C384        C385   1.420   1_554  A
C385        C386   1.406       .  A
C385        C389   1.518       .  S
C386        H390   1.085       .  S
C387        F400   1.384       .  S
C387        F401   1.382       .  S
C387        F402   1.382       .  S
C389        F397   1.384       .  S
C389        F398   1.381       .  S
C389        F399   1.383       .  S
C403        C404   1.399       .  A
C403        C408   1.408       .  A
C403        H413   1.083       .  S
C404        C405   1.416       .  A
C404        C409   1.488       .  S
C405        C406   1.410       .  A
C405        C410   1.519       .  S
C406        C407   1.406       .  A
C406        H411   1.083       .  S
C407        C408   1.422       .  A
C408        C412   1.514       .  S
C409        C414   1.417       .  A
C409        C418   1.403   1_554  A
C410        F426   1.382   1_554  S
C410        F427   1.382       .  S
C410        F428   1.385       .  S
C412        F423   1.381       .  S
C412        F424   1.385   1_554  S
C412        F425   1.382   1_554  S
C414        C415   1.409       .  A
C414        C419   1.518       .  S
C415        C416   1.403       .  A
C415        H420   1.083       .  S
C416        C417   1.416   1_554  A
C417        C418   1.407       .  A
C417        C421   1.518       .  S
C418        H422   1.083       .  S
C419        F432   1.385       .  S
C419        F433   1.382       .  S
C419        F434   1.383       .  S
C421        F429   1.384       .  S
C421        F430   1.382       .  S
C421        F431   1.383       .  S
N435        H467   1.035       .  S
N435        C439   1.353   1_554  A
N436       C1311   1.350   1_556  A
N436        C444   1.351       .  A
N437        H468   1.037   1_556  S
N437        C441   1.355       .  A
N438       C1313   1.351       .  A
N438        C446   1.350       .  A
C439        C447   1.387       .  A
C439        C455   1.414       .  A
C440        C456   1.415       .  A
C440        C448   1.387       .  A
C441        C449   1.387       .  A
C441        C458   1.417       .  A
C442        C457   1.420       .  A
C442        C450   1.387   1_554  A
C443       N1304   1.352       .  A
C443        C455   1.413       .  A
C443        C451   1.386   1_556  A
C444        C458   1.412       .  A
C444        C452   1.386   1_556  A
C445       N1306   1.350   1_456  A
C445        C453   1.386       .  A
C445        C456   1.412   1_556  A
C446        C454   1.387       .  A
C446        C457   1.412       .  A
C447        H459   1.082       .  S
C448        H460   1.082       .  S
C449        H461   1.082       .  S
C450        H462   1.082       .  S
C451       C1320   1.372   1_455  A
C451        H463   1.082       .  S
C452       C1319   1.374       .  A
C452        H464   1.082       .  S
C453       C1322   1.373   1_455  A
C453        H465   1.082       .  S
C454       C1321   1.371       .  A
C454        H466   1.082       .  S
C455        C850   1.486       .  S
C456        C745   1.485       .  S
C457        C786   1.489       .  S
C458        C818   1.492       .  S
N469        H501   1.038       .  S
N469        C473   1.356       .  A
N470       C1345   1.352       .  A
N470        C478   1.352       .  A
N471        H502   1.035       .  S
N471        C475   1.353       .  A
N472       C1347   1.352       .  A
N472        C480   1.352       .  A
C473        C481   1.387       .  A
C473        C489   1.418       .  A
C474        C490   1.416       .  A
C474        C482   1.386       .  A
C475        C483   1.387       .  A
C475        C492   1.416       .  A
C476        C491   1.413       .  A
C476        C484   1.387       .  A
C477       N1338   1.352   1_455  A
C477        C489   1.415       .  A
C477        C485   1.386       .  A
C478        C492   1.416       .  A
C478        C486   1.386       .  A
C479       N1340   1.351       .  A
C479        C487   1.387       .  A
C479        C490   1.414       .  A
C480        C488   1.386       .  A
C480        C491   1.414       .  A
C481        H493   1.082       .  S
C482        H494   1.082       .  S
C483        H495   1.082       .  S
C484        H496   1.082       .  S
C485       C1354   1.375   1_455  A
C485        H497   1.082       .  S
C486       C1353   1.375       .  A
C486        H498   1.082       .  S
C487       C1356   1.374   1_455  A
C487        H499   1.082       .  S
C488       C1355   1.375       .  A
C488        H500   1.082       .  S
C489        C722   1.494       .  S
C490        C617   1.491       .  S
C491        C649   1.487       .  S
C492        C690   1.490       .  S
O503        C519   1.275       .  A
O503       Zn509   2.033       .  S
C504        C585   1.482       .  S
C504        O520   1.276       .  A
C504        O517   1.273       .  A
O505        C518   1.277       .  A
O505       Cd512   2.089       .  S
O506        C524   1.274   1_554  A
O506       Cd515   2.063       .  S
O507        C521   1.273   1_556  A
O507       Cd511   2.073       .  S
O508        C519   1.275   1_556  A
O508       Cd511   2.073       .  S
Zn509       O520   2.024       .  S
Zn509       O522   2.020       .  S
Zn509       O514   1.950   1_554  S
O510        C521   1.277       .  A
O510       Cd515   2.086       .  S
Cd511       O513   2.068       .  S
Cd511       O514   1.999       .  S
Cd512       O516   2.089       .  S
Cd512       O525   2.086       .  S
Cd512       O514   2.010       .  S
O513        C523   1.273       .  A
O514       Cd515   2.004   1_556  S
Cd515       O517   2.067       .  S
O516        C523   1.279       .  A
C518        C754   1.480       .  S
C518        O522   1.273   1_556  A
C519        C841   1.489       .  S
C521        C809   1.494   1_554  S
C523        C562   1.493       .  S
C524        C777   1.495       .  S
C524        O525   1.276       .  A
O526        C542   1.277       .  A
O526       Zn532   2.035       .  S
C527        C594   1.483       .  S
C527        O543   1.273       .  A
C527        O540   1.275       .  A
O528        C541   1.274       .  A
O528       Cd535   2.075       .  S
O529        C547   1.273       .  A
O529       Cd538   2.076       .  S
O530        C544   1.277       .  A
O530       Cd534   2.089       .  S
O531        C542   1.274       .  A
O531       Cd534   2.079       .  S
Zn532       O543   2.018       .  S
Zn532       O545   2.035       .  S
Zn532       O537   1.955       .  S
O533        C544   1.274       .  A
O533       Cd538   2.074       .  S
Cd534       O536   2.072       .  S
Cd534       O537   2.007       .  S
Cd535       O539   2.084       .  S
Cd535       O548   2.094       .  S
Cd535       O537   2.008       .  S
O536        C546   1.274       .  A
O537       Cd538   1.999       .  S
Cd538       O540   2.069       .  S
O539        C546   1.278       .  A
C541        C713   1.493       .  S
C541        O545   1.277       .  A
C542        C626   1.501       .  S
C544        C658   1.491       .  S
C546        C553   1.487       .  S
C547        C681   1.500       .  S
C547        O548   1.278       .  A
C549        C550   1.401       .  A
C549        C554   1.407       .  A
C549        H559   1.083       .  S
C550        C551   1.416       .  A
C550        C555   1.487       .  S
C551        C552   1.408       .  A
C551        C556   1.519       .  S
C552        C553   1.406       .  A
C552        H557   1.083       .  S
C553        C554   1.422       .  A
C554        C558   1.520       .  S
C555        C560   1.415       .  A
C555        C564   1.400       .  A
C556        F572   1.382       .  S
C556        F573   1.382       .  S
C556        F574   1.385       .  S
C558        F569   1.382       .  S
C558        F570   1.385       .  S
C558        F571   1.383       .  S
C560        C561   1.408       .  A
C560        C565   1.520       .  S
C561        C562   1.407       .  A
C561        H566   1.083       .  S
C562        C563   1.425       .  A
C563        C564   1.409       .  A
C563        C567   1.521       .  S
C564        H568   1.083       .  S
C565        F578   1.384       .  S
C565        F579   1.382       .  S
C565        F580   1.382       .  S
C567        F575   1.385       .  S
C567        F576   1.384       .  S
C567        F577   1.383       .  S
C581        C582   1.401       .  A
C581        C586   1.407       .  A
C581        H591   1.083       .  S
C582        C583   1.415       .  A
C582        C587   1.483       .  S
C583        C584   1.405       .  A
C583        C588   1.519       .  S
C584        C585   1.404       .  A
C584        H589   1.083       .  S
C585        C586   1.422       .  A
C586        C590   1.520       .  S
C587        C592   1.415       .  A
C587        C596   1.402       .  A
C588        F604   1.382       .  S
C588        F605   1.382       .  S
C588        F606   1.385       .  S
C590        F601   1.382       .  S
C590        F602   1.385       .  S
C590        F603   1.383       .  S
C592        C593   1.405       .  A
C592        C597   1.520       .  S
C593        C594   1.405       .  A
C593        H598   1.083       .  S
C594        C595   1.421       .  A
C595        C596   1.408       .  A
C595        C599   1.520       .  S
C596        H600   1.083       .  S
C597        F610   1.384       .  S
C597        F611   1.382       .  S
C597        F612   1.382       .  S
C599        F607   1.385       .  S
C599        F608   1.384       .  S
C599        F609   1.383       .  S
C613        C614   1.403       .  A
C613        C618   1.408       .  A
C613        H623   1.083       .  S
C614        C615   1.417       .  A
C614        C619   1.488       .  S
C615        C616   1.408       .  A
C615        C620   1.519       .  S
C616        C617   1.402       .  A
C616        H621   1.083       .  S
C617        C618   1.416       .  A
C618        C622   1.518       .  S
C619        C624   1.413       .  A
C619        C628   1.400       .  A
C620        F636   1.382       .  S
C620        F637   1.382       .  S
C620        F638   1.385       .  S
C622        F633   1.385       .  S
C622        F634   1.382       .  S
C622        F635   1.383       .  S
C624        C625   1.409       .  A
C624        C629   1.520       .  S
C625        C626   1.411       .  A
C625        H630   1.082       .  S
C626        C627   1.428       .  A
C627        C628   1.411       .  A
C627        C631   1.521       .  S
C628        H632   1.083       .  S
C629        F642   1.384       .  S
C629        F643   1.382       .  S
C629        F644   1.382       .  S
C631        F639   1.385       .  S
C631        F640   1.384       .  S
C631        F641   1.383       .  S
C645        C646   1.403       .  A
C645        C650   1.406       .  A
C645        H655   1.083       .  S
C646        C647   1.417       .  A
C646        C651   1.484       .  S
C647        C648   1.406       .  A
C647        C652   1.519       .  S
C648        C649   1.401       .  A
C648        H653   1.083       .  S
C649        C650   1.415       .  A
C650        C654   1.518       .  S
C651        C656   1.416       .  A
C651        C660   1.397       .  A
C652        F668   1.382       .  S
C652        F669   1.382       .  S
C652        F670   1.385       .  S
C654        F665   1.382       .  S
C654        F666   1.384       .  S
C654        F667   1.383       .  S
C656        C657   1.410       .  A
C656        C661   1.519       .  S
C657        C658   1.407       .  A
C657        H662   1.083       .  S
C658        C659   1.423       .  A
C659        C660   1.405       .  A
C659        C663   1.516       .  S
C660        H664   1.083       .  S
C661        F674   1.385       .  S
C661        F675   1.382       .  S
C661        F676   1.382       .  S
C663        F671   1.382       .  S
C663        F672   1.383       .  S
C663        F673   1.385       .  S
C677        C678   1.397       .  A
C677        C682   1.407       .  A
C677        H687   1.083       .  S
C678        C679   1.415       .  A
C678        C683   1.486       .  S
C679        C680   1.411       .  A
C679        C684   1.519       .  S
C680        C681   1.410       .  A
C680        H685   1.083       .  S
C681        C682   1.427       .  A
C682        C686   1.517       .  S
C683        C688   1.417       .  A
C683        C692   1.402       .  A
C684        F700   1.382       .  S
C684        F701   1.382       .  S
C684        F702   1.384       .  S
C686        F697   1.383       .  S
C686        F698   1.385       .  S
C686        F699   1.380       .  S
C688        C689   1.408       .  A
C688        C693   1.519       .  S
C689        C690   1.403       .  A
C689        H694   1.083       .  S
C690        C691   1.415       .  A
C691        C692   1.406       .  A
C691        C695   1.518       .  S
C692        H696   1.083       .  S
C693        F706   1.385       .  S
C693        F707   1.382       .  S
C693        F708   1.382       .  S
C695        F703   1.384       .  S
C695        F704   1.382       .  S
C695        F705   1.382       .  S
C709        C710   1.401       .  A
C709        C714   1.409       .  A
C709        H719   1.083       .  S
C710        C711   1.416       .  A
C710        C715   1.491       .  S
C711        C712   1.409       .  A
C711        C716   1.519       .  S
C712        C713   1.407       .  A
C712        H717   1.083       .  S
C713        C714   1.424       .  A
C714        C718   1.521       .  S
C715        C720   1.418       .  A
C715        C724   1.402       .  A
C716        F732   1.382       .  S
C716        F733   1.383       .  S
C716        F734   1.385       .  S
C718        F729   1.385       .  S
C718        F730   1.382       .  S
C718        F731   1.384       .  S
C720        C721   1.410       .  A
C720        C725   1.519       .  S
C721        C722   1.405       .  A
C721        H726   1.083       .  S
C722        C723   1.420       .  A
C723        C724   1.407       .  A
C723        C727   1.519       .  S
C724        H728   1.085       .  S
C725        F738   1.384       .  S
C725        F739   1.382       .  S
C725        F740   1.383       .  S
C727        F735   1.384       .  S
C727        F736   1.381       .  S
C727        F737   1.383       .  S
C741        C742   1.403   1_554  A
C741        C746   1.406       .  A
C741        H751   1.083       .  S
C742        C743   1.416       .  A
C742        C747   1.481       .  S
C743        C744   1.405       .  A
C743        C748   1.519       .  S
C744        C745   1.401   1_556  A
C744        H749   1.083       .  S
C745        C746   1.415       .  A
C746        C750   1.518       .  S
C747        C752   1.416   1_556  A
C747        C756   1.399       .  A
C748        F764   1.382       .  S
C748        F765   1.382       .  S
C748        F766   1.385       .  S
C750        F761   1.384       .  S
C750        F762   1.382       .  S
C750        F763   1.382       .  S
C752        C753   1.409       .  A
C752        C757   1.519       .  S
C753        C754   1.404   1_554  A
C753        H758   1.083       .  S
C754        C755   1.417       .  A
C755        C756   1.404       .  A
C755        C759   1.513       .  S
C756        H760   1.083       .  S
C757        F770   1.384       .  S
C757        F771   1.383       .  S
C757        F772   1.382       .  S
C759        F767   1.380   1_556  S
C759        F768   1.383       .  S
C759        F769   1.385       .  S
C773        C774   1.400   1_556  A
C773        C778   1.408       .  A
C773        H783   1.083       .  S
C774        C775   1.414       .  A
C774        C779   1.486       .  S
C775        C776   1.407       .  A
C775        C780   1.520       .  S
C776        C777   1.410   1_554  A
C776        H781   1.082       .  S
C777        C778   1.424       .  A
C778        C782   1.520       .  S
C779        C784   1.416   1_554  A
C779        C788   1.402       .  A
C780        F796   1.382       .  S
C780        F797   1.382       .  S
C780        F798   1.385       .  S
C782        F793   1.383       .  S
C782        F794   1.385       .  S
C782        F795   1.384   1_556  S
C784        C785   1.406       .  A
C784        C789   1.519       .  S
C785        C786   1.403   1_556  A
C785        H790   1.083       .  S
C786        C787   1.419       .  A
C787        C788   1.406       .  A
C787        C791   1.519       .  S
C788        H792   1.084       .  S
C789        F802   1.385       .  S
C789        F803   1.382       .  S
C789        F804   1.383       .  S
C791        F799   1.383       .  S
C791        F800   1.381       .  S
C791        F801   1.384       .  S
C805        C806   1.401       .  A
C805        C810   1.409       .  A
C805        H815   1.083       .  S
C806        C807   1.414   1_556  A
C806        C811   1.488       .  S
C807        C808   1.409       .  A
C807        C812   1.519       .  S
C808        C809   1.408   1_554  A
C808        H813   1.083       .  S
C809        C810   1.425       .  A
C810        C814   1.521       .  S
C811        C816   1.417   1_556  A
C811        C820   1.404       .  A
C812        F828   1.382   1_554  S
C812        F829   1.382       .  S
C812        F830   1.385       .  S
C814        F825   1.385       .  S
C814        F826   1.382       .  S
C814        F827   1.384   1_556  S
C816        C817   1.407       .  A
C816        C821   1.519       .  S
C817        C818   1.402   1_554  A
C817        H822   1.083       .  S
C818        C819   1.417       .  A
C819        C820   1.410       .  A
C819        C823   1.519       .  S
C820        H824   1.083       .  S
C821        F834   1.384       .  S
C821        F835   1.382       .  S
C821        F836   1.382       .  S
C823        F831   1.384       .  S
C823        F832   1.383       .  S
C823        F833   1.382       .  S
C837        C838   1.398       .  A
C837        C842   1.406       .  A
C837        H847   1.083       .  S
C838        C839   1.415       .  A
C838        C843   1.483       .  S
C839        C840   1.408       .  A
C839        C844   1.519   1_554  S
C840        C841   1.406       .  A
C840        H845   1.083       .  S
C841        C842   1.422       .  A
C842        C846   1.515       .  S
C843        C848   1.415       .  A
C843        C852   1.402   1_554  A
C844        F860   1.382       .  S
C844        F861   1.382   1_556  S
C844        F862   1.385       .  S
C846        F857   1.382       .  S
C846        F858   1.385       .  S
C846        F859   1.382   1_554  S
C848        C849   1.405       .  A
C848        C853   1.518       .  S
C849        C850   1.403   1_554  A
C849        H854   1.083       .  S
C850        C851   1.419       .  A
C851        C852   1.405       .  A
C851        C855   1.519       .  S
C852        H856   1.085       .  S
C853        F866   1.385       .  S
C853        F867   1.382       .  S
C853        F868   1.382       .  S
C855        F863   1.383       .  S
C855        F864   1.381       .  S
C855        F865   1.384       .  S
N869        H901   1.038       .  S
N869       C1308   1.352   1_554  A
N869        C873   1.351   1_564  A
N870        C878   1.353   1_454  A
N871        H902   1.037       .  S
N871       C1310   1.355   1_556  A
N871        C875   1.353   1_566  A
N872        C880   1.353   1_455  A
C873        C881   1.387       .  A
C873        C889   1.412       .  A
C874       N1303   1.353       .  A
C874        C890   1.415       .  A
C874        C882   1.388       .  A
C875        C883   1.387       .  A
C875        C892   1.418       .  A
C876       N1305   1.355       .  A
C876        C891   1.421       .  A
C876        C884   1.388       .  A
C877        C889   1.416   1_554  A
C877        C885   1.386       .  A
C878        C892   1.417   1_556  A
C878        C886   1.386       .  A
C879        C887   1.386       .  A
C879        C890   1.415   1_554  A
C880        C888   1.387       .  A
C880        C891   1.419   1_554  A
C881       C1316   1.374   1_545  A
C881        H893   1.083       .  S
C882       C1315   1.375       .  A
C882        H894   1.082       .  S
C883       C1318   1.376   1_545  A
C883        H895   1.082       .  S
C884       C1317   1.377       .  A
C884        H896   1.082       .  S
C885        H897   1.082       .  S
C886        H898   1.082       .  S
C887        H899   1.082       .  S
C888        H900   1.082       .  S
C889       C1284   1.489   1_556  S
C890       C1179   1.491       .  S
C891       C1220   1.492       .  S
C892       C1252   1.490       .  S
N903        H935   1.032       .  S
N903       C1342   1.354   1_545  A
N903        C907   1.355       .  A
N904        C912   1.350       .  A
N905        H936   1.031       .  S
N905       C1344   1.352   1_545  A
N905        C909   1.353       .  A
N906        C914   1.354   1_455  A
C907        C915   1.387       .  A
C907        C923   1.418       .  A
C908       N1337   1.355       .  A
C908        C924   1.419       .  A
C908        C916   1.387       .  A
C909        C917   1.387       .  A
C909        C926   1.412       .  A
C910       N1339   1.354       .  A
C910        C925   1.416       .  A
C910        C918   1.387       .  A
C911        C923   1.413       .  A
C911        C919   1.387       .  A
C912        C926   1.411       .  A
C912        C920   1.386       .  A
C913        C921   1.387       .  A
C913        C924   1.417       .  A
C914        C922   1.385       .  A
C914        C925   1.416       .  A
C915       C1350   1.376   1_545  A
C915        H927   1.082       .  S
C916       C1349   1.377       .  A
C916        H928   1.082       .  S
C917       C1352   1.373   1_545  A
C917        H929   1.082       .  S
C918       C1351   1.373       .  A
C918        H930   1.082       .  S
C919        H931   1.082       .  S
C920        H932   1.082       .  S
C921        H933   1.082       .  S
C922        H934   1.082       .  S
C923       C1156   1.491       .  S
C924       C1051   1.494       .  S
C925       C1083   1.493       .  S
C926       C1124   1.484       .  S
O937        C953   1.273       .  A
O937       Zn943   2.030       .  S
C938       C1019   1.481       .  S
C938        O954   1.273       .  A
C938        O951   1.272       .  A
O939        C952   1.277       .  A
O939       Cd946   2.087       .  S
O940        C958   1.275   1_554  A
O940       Cd949   2.063       .  S
O941        C955   1.276   1_556  A
O941       Cd945   2.089       .  S
O942        C953   1.278   1_556  A
O942       Cd945   2.082       .  S
Zn943       O954   2.009       .  S
Zn943       O956   2.013       .  S
Zn943       O948   1.948   1_554  S
O944        C955   1.275       .  A
O944       Cd949   2.075       .  S
Cd945       O947   2.087       .  S
Cd945       O948   2.002       .  S
Cd946       O950   2.084       .  S
Cd946       O959   2.087       .  S
Cd946       O948   2.011       .  S
O947        C957   1.277       .  A
O948       Cd949   1.999   1_556  S
Cd949       O951   2.059       .  S
O950        C957   1.279       .  A
C952       C1188   1.490       .  S
C952        O956   1.272   1_556  A
C953       C1275   1.505       .  S
C955       C1243   1.482       .  S
C957        C996   1.499       .  S
C958       C1211   1.492       .  S
C958        O959   1.275       .  A
O960        C976   1.276       .  A
O960       Zn966   2.015       .  S
C961       C1028   1.480       .  S
C961        O977   1.272       .  A
C961        O974   1.274       .  A
O962        C975   1.271       .  A
O962       Cd969   2.061       .  S
O963        C981   1.273       .  A
O963       Cd972   2.064       .  S
O964        C978   1.277       .  A
O964       Cd968   2.089       .  S
O965        C976   1.273       .  A
O965       Cd968   2.073       .  S
Zn966       O977   2.019       .  S
Zn966       O979   2.036       .  S
Zn966       O971   1.949       .  S
O967        C978   1.274       .  A
O967       Cd972   2.070       .  S
Cd968       O970   2.090       .  S
Cd968       O971   2.006       .  S
Cd969       O973   2.076       .  S
Cd969       O982   2.072       .  S
Cd969       O971   1.998       .  S
O970        C980   1.277       .  A
O971       Cd972   1.998       .  S
Cd972       O974   2.068       .  S
O973        C980   1.276       .  A
C975       C1147   1.499       .  S
C975        O979   1.277       .  A
C976       C1060   1.498       .  S
C978       C1092   1.486       .  S
C980        C987   1.487       .  S
C981       C1115   1.487       .  S
C981        O982   1.275       .  A
C983        C984   1.404       .  A
C983        C988   1.410       .  A
C983        H993   1.083       .  S
C984        C985   1.416       .  A
C984        C989   1.492       .  S
C985        C986   1.409       .  A
C985        C990   1.519       .  S
C986        C987   1.405       .  A
C986        H991   1.083       .  S
C987        C988   1.419       .  A
C988        C992   1.519       .  S
C989        C994   1.415       .  A
C989        C998   1.402       .  A
C990       F1006   1.382       .  S
C990       F1007   1.382       .  S
C990       F1008   1.385       .  S
C992       F1003   1.382       .  S
C992       F1004   1.385       .  S
C992       F1005   1.384       .  S
C994        C995   1.409       .  A
C994        C999   1.521       .  S
C995        C996   1.409       .  A
C995       H1000   1.083       .  S
C996        C997   1.426       .  A
C997        C998   1.412       .  A
C997       C1001   1.520       .  S
C998       H1002   1.083       .  S
C999       F1012   1.384       .  S
C999       F1013   1.382       .  S
C999       F1014   1.382       .  S
C1001      F1009   1.385       .  S
C1001      F1010   1.383       .  S
C1001      F1011   1.383       .  S
C1015      C1016   1.401       .  A
C1015      C1020   1.407       .  A
C1015      H1025   1.083       .  S
C1016      C1017   1.414       .  A
C1016      C1021   1.481       .  S
C1017      C1018   1.403       .  A
C1017      C1022   1.519       .  S
C1018      C1019   1.405       .  A
C1018      H1023   1.083       .  S
C1019      C1020   1.421       .  A
C1020      C1024   1.521       .  S
C1021      C1026   1.415       .  A
C1021      C1030   1.400       .  A
C1022      F1038   1.382       .  S
C1022      F1039   1.382       .  S
C1022      F1040   1.384       .  S
C1024      F1035   1.382       .  S
C1024      F1036   1.385       .  S
C1024      F1037   1.384       .  S
C1026      C1027   1.405       .  A
C1026      C1031   1.520       .  S
C1027      C1028   1.404       .  A
C1027      H1032   1.083       .  S
C1028      C1029   1.420       .  A
C1029      C1030   1.407       .  A
C1029      C1033   1.519       .  S
C1030      H1034   1.083       .  S
C1031      F1044   1.384       .  S
C1031      F1045   1.382       .  S
C1031      F1046   1.383       .  S
C1033      F1041   1.385       .  S
C1033      F1042   1.383       .  S
C1033      F1043   1.383       .  S
C1047      C1048   1.401       .  A
C1047      C1052   1.407       .  A
C1047      H1057   1.083       .  S
C1048      C1049   1.417       .  A
C1048      C1053   1.486       .  S
C1049      C1050   1.408       .  A
C1049      C1054   1.519       .  S
C1050      C1051   1.404       .  A
C1050      H1055   1.083       .  S
C1051      C1052   1.417       .  A
C1052      C1056   1.518       .  S
C1053      C1058   1.412       .  A
C1053      C1062   1.400       .  A
C1054      F1070   1.382       .  S
C1054      F1071   1.383       .  S
C1054      F1072   1.384       .  S
C1056      F1067   1.385       .  S
C1056      F1068   1.381       .  S
C1056      F1069   1.383       .  S
C1058      C1059   1.405       .  A
C1058      C1063   1.520       .  S
C1059      C1060   1.411       .  A
C1059      H1064   1.082       .  S
C1060      C1061   1.428       .  A
C1061      C1062   1.410       .  A
C1061      C1065   1.522       .  S
C1062      H1066   1.083       .  S
C1063      F1076   1.385       .  S
C1063      F1077   1.382       .  S
C1063      F1078   1.382       .  S
C1065      F1073   1.385       .  S
C1065      F1074   1.384       .  S
C1065      F1075   1.383       .  S
C1079      C1080   1.403       .  A
C1079      C1084   1.408       .  A
C1079      H1089   1.083       .  S
C1080      C1081   1.417       .  A
C1080      C1085   1.487       .  S
C1081      C1082   1.409       .  A
C1081      C1086   1.520       .  S
C1082      C1083   1.403       .  A
C1082      H1087   1.083       .  S
C1083      C1084   1.416       .  A
C1084      C1088   1.518       .  S
C1085      C1090   1.417       .  A
C1085      C1094   1.400       .  A
C1086      F1102   1.382       .  S
C1086      F1103   1.382       .  S
C1086      F1104   1.384       .  S
C1088      F1099   1.382       .  S
C1088      F1100   1.384       .  S
C1088      F1101   1.382       .  S
C1090      C1091   1.410       .  A
C1090      C1095   1.519       .  S
C1091      C1092   1.406       .  A
C1091      H1096   1.083       .  S
C1092      C1093   1.420       .  A
C1093      C1094   1.406       .  A
C1093      C1097   1.516       .  S
C1094      H1098   1.083       .  S
C1095      F1108   1.385       .  S
C1095      F1109   1.382       .  S
C1095      F1110   1.381       .  S
C1097      F1105   1.382       .  S
C1097      F1106   1.383       .  S
C1097      F1107   1.385       .  S
C1111      C1112   1.398       .  A
C1111      C1116   1.403       .  A
C1111      H1121   1.084       .  S
C1112      C1113   1.414       .  A
C1112      C1117   1.478       .  S
C1113      C1114   1.407       .  A
C1113      C1118   1.520       .  S
C1114      C1115   1.408       .  A
C1114      H1119   1.083       .  S
C1115      C1116   1.422       .  A
C1116      C1120   1.518       .  S
C1117      C1122   1.416       .  A
C1117      C1126   1.402       .  A
C1118      F1134   1.382       .  S
C1118      F1135   1.380       .  S
C1118      F1136   1.385       .  S
C1120      F1131   1.382       .  S
C1120      F1132   1.385       .  S
C1120      F1133   1.382       .  S
C1122      C1123   1.406       .  A
C1122      C1127   1.520       .  S
C1123      C1124   1.402       .  A
C1123      H1128   1.083       .  S
C1124      C1125   1.415       .  A
C1125      C1126   1.404       .  A
C1125      C1129   1.519       .  S
C1126      H1130   1.083       .  S
C1127      F1140   1.385       .  S
C1127      F1141   1.382       .  S
C1127      F1142   1.381       .  S
C1129      F1137   1.382       .  S
C1129      F1138   1.382       .  S
C1129      F1139   1.385       .  S
C1143      C1144   1.398       .  A
C1143      C1148   1.408       .  A
C1143      H1153   1.083       .  S
C1144      C1145   1.413       .  A
C1144      C1149   1.484       .  S
C1145      C1146   1.408       .  A
C1145      C1150   1.520       .  S
C1146      C1147   1.411       .  A
C1146      H1151   1.082       .  S
C1147      C1148   1.430       .  A
C1148      C1152   1.523       .  S
C1149      C1154   1.415       .  A
C1149      C1158   1.400       .  A
C1150      F1166   1.382       .  S
C1150      F1167   1.382       .  S
C1150      F1168   1.384       .  S
C1152      F1163   1.385       .  S
C1152      F1164   1.383       .  S
C1152      F1165   1.384       .  S
C1154      C1155   1.407       .  A
C1154      C1159   1.519       .  S
C1155      C1156   1.405       .  A
C1155      H1160   1.083       .  S
C1156      C1157   1.422       .  A
C1157      C1158   1.404       .  A
C1157      C1161   1.520       .  S
C1158      H1162   1.085       .  S
C1159      F1172   1.385       .  S
C1159      F1173   1.382       .  S
C1159      F1174   1.382       .  S
C1161      F1169   1.383       .  S
C1161      F1170   1.380       .  S
C1161      F1171   1.384       .  S
C1175      C1176   1.403   1_554  A
C1175      C1180   1.408       .  A
C1175      H1185   1.083       .  S
C1176      C1177   1.417       .  A
C1176      C1181   1.486       .  S
C1177      C1178   1.407       .  A
C1177      C1182   1.519       .  S
C1178      C1179   1.402       .  A
C1178      H1183   1.083       .  S
C1179      C1180   1.416   1_556  A
C1180      C1184   1.518       .  S
C1181      C1186   1.415       .  A
C1181      C1190   1.399   1_556  A
C1182      F1198   1.382       .  S
C1182      F1199   1.382       .  S
C1182      F1200   1.384       .  S
C1184      F1195   1.382       .  S
C1184      F1196   1.385       .  S
C1184      F1197   1.383       .  S
C1186      C1187   1.410       .  A
C1186      C1191   1.519       .  S
C1187      C1188   1.407       .  A
C1187      H1192   1.083       .  S
C1188      C1189   1.423   1_556  A
C1189      C1190   1.406       .  A
C1189      C1193   1.518       .  S
C1190      H1194   1.083       .  S
C1191      F1204   1.385       .  S
C1191      F1205   1.383   1_556  S
C1191      F1206   1.382       .  S
C1193      F1201   1.383       .  S
C1193      F1202   1.384   1_554  S
C1193      F1203   1.385       .  S
C1207      C1208   1.402       .  A
C1207      C1212   1.411       .  A
C1207      H1217   1.083       .  S
C1208      C1209   1.414   1_556  A
C1208      C1213   1.487       .  S
C1209      C1210   1.405       .  A
C1209      C1214   1.520       .  S
C1210      C1211   1.408   1_554  A
C1210      H1215   1.083       .  S
C1211      C1212   1.424       .  A
C1212      C1216   1.520       .  S
C1213      C1218   1.416       .  A
C1213      C1222   1.401   1_556  A
C1214      F1230   1.382       .  S
C1214      F1231   1.382   1_554  S
C1214      F1232   1.385       .  S
C1216      F1227   1.383       .  S
C1216      F1228   1.385       .  S
C1216      F1229   1.384   1_556  S
C1218      C1219   1.410       .  A
C1218      C1223   1.519       .  S
C1219      C1220   1.405       .  A
C1219      H1224   1.083       .  S
C1220      C1221   1.420   1_556  A
C1221      C1222   1.406       .  A
C1221      C1225   1.519       .  S
C1222      H1226   1.085       .  S
C1223      F1236   1.384       .  S
C1223      F1237   1.383       .  S
C1223      F1238   1.382       .  S
C1225      F1233   1.383       .  S
C1225      F1234   1.381       .  S
C1225      F1235   1.384       .  S
C1239      C1240   1.404       .  A
C1239      C1244   1.410       .  A
C1239      H1249   1.083       .  S
C1240      C1241   1.416   1_554  A
C1240      C1245   1.489       .  S
C1241      C1242   1.408       .  A
C1241      C1246   1.519       .  S
C1242      C1243   1.403   1_556  A
C1242      H1247   1.083       .  S
C1243      C1244   1.417       .  A
C1244      C1248   1.518       .  S
C1245      C1250   1.417       .  A
C1245      C1254   1.402   1_554  A
C1246      F1262   1.382       .  S
C1246      F1263   1.382   1_556  S
C1246      F1264   1.384       .  S
C1248      F1259   1.385       .  S
C1248      F1260   1.382       .  S
C1248      F1261   1.384       .  S
C1250      C1251   1.409       .  A
C1250      C1255   1.519       .  S
C1251      C1252   1.404       .  A
C1251      H1256   1.083       .  S
C1252      C1253   1.419   1_554  A
C1253      C1254   1.405       .  A
C1253      C1257   1.519       .  S
C1254      H1258   1.085       .  S
C1255      F1268   1.385       .  S
C1255      F1269   1.382       .  S
C1255      F1270   1.382       .  S
C1257      F1265   1.384       .  S
C1257      F1266   1.381       .  S
C1257      F1267   1.383       .  S
C1271      C1272   1.398       .  A
C1271      C1276   1.411       .  A
C1271      H1281   1.083       .  S
C1272      C1273   1.412   1_554  A
C1272      C1277   1.485       .  S
C1273      C1274   1.406       .  A
C1273      C1278   1.521       .  S
C1274      C1275   1.412   1_556  A
C1274      H1279   1.082       .  S
C1275      C1276   1.431       .  A
C1276      C1280   1.520       .  S
C1277      C1282   1.415       .  A
C1277      C1286   1.402   1_554  A
C1278      F1294   1.382       .  S
C1278      F1295   1.382       .  S
C1278      F1296   1.384       .  S
C1280      F1291   1.383       .  S
C1280      F1292   1.385       .  S
C1280      F1293   1.381       .  S
C1282      C1283   1.407       .  A
C1282      C1287   1.519       .  S
C1283      C1284   1.405       .  A
C1283      H1288   1.083       .  S
C1284      C1285   1.418   1_554  A
C1285      C1286   1.404       .  A
C1285      C1289   1.518       .  S
C1286      H1290   1.085       .  S
C1287      F1300   1.385       .  S
C1287      F1301   1.382       .  S
C1287      F1302   1.382       .  S
C1289      F1297   1.383       .  S
C1289      F1298   1.381       .  S
C1289      F1299   1.384       .  S
N1303      H1335   1.038   1_556  S
N1303      C1307   1.353       .  A
N1304      C1312   1.352   1_455  A
N1305      H1336   1.034   1_556  S
N1305      C1309   1.356       .  A
N1306      C1314   1.350   1_554  A
C1307      C1315   1.387       .  A
C1307      C1323   1.414       .  A
C1308      C1324   1.412   1_556  A
C1308      C1316   1.387       .  A
C1309      C1317   1.386       .  A
C1309      C1326   1.420       .  A
C1310      C1325   1.418   1_554  A
C1310      C1318   1.387       .  A
C1311      C1323   1.413   1_554  A
C1311      C1319   1.386       .  A
C1312      C1326   1.415       .  A
C1312      C1320   1.386   1_556  A
C1313      C1321   1.386       .  A
C1313      C1324   1.411       .  A
C1314      C1322   1.386       .  A
C1314      C1325   1.412       .  A
C1315      H1327   1.082       .  S
C1316      H1328   1.082       .  S
C1317      H1329   1.082       .  S
C1318      H1330   1.082       .  S
C1319      H1331   1.082       .  S
C1320      H1332   1.082       .  S
C1321      H1333   1.082       .  S
C1322      H1334   1.082       .  S
C1323      C1718   1.486       .  S
C1324      C1613   1.485       .  S
C1325      C1654   1.487   1_556  S
C1326      C1686   1.495       .  S
N1337      H1369   1.037       .  S
N1337      C1341   1.356       .  A
N1338      C1346   1.352       .  A
N1339      H1370   1.036       .  S
N1339      C1343   1.353       .  A
N1340      C1348   1.351   1_455  A
C1341      C1349   1.387       .  A
C1341      C1357   1.420       .  A
C1342      C1358   1.416       .  A
C1342      C1350   1.386       .  A
C1343      C1351   1.387       .  A
C1343      C1360   1.416       .  A
C1344      C1359   1.413       .  A
C1344      C1352   1.387       .  A
C1345      C1357   1.416       .  A
C1345      C1353   1.386       .  A
C1346      C1360   1.415       .  A
C1346      C1354   1.387       .  A
C1347      C1355   1.387       .  A
C1347      C1358   1.414       .  A
C1348      C1356   1.386       .  A
C1348      C1359   1.413       .  A
C1349      H1361   1.082       .  S
C1350      H1362   1.082       .  S
C1351      H1363   1.082       .  S
C1352      H1364   1.082       .  S
C1353      H1365   1.082       .  S
C1354      H1366   1.082       .  S
C1355      H1367   1.082       .  S
C1356      H1368   1.082       .  S
C1357      C1590   1.495       .  S
C1358      C1485   1.491       .  S
C1359      C1517   1.486       .  S
C1360      C1558   1.488       .  S
O1371      C1387   1.274       .  A
O1371     Zn1377   2.031       .  S
C1372      C1453   1.482       .  S
C1372      O1388   1.275       .  A
C1372      O1385   1.274       .  A
O1373      C1386   1.276   1_556  A
O1373     Cd1380   2.078       .  S
O1374      C1392   1.275   1_554  A
O1374     Cd1383   2.066       .  S
O1375      C1389   1.274   1_556  A
O1375     Cd1379   2.078       .  S
O1376      C1387   1.277   1_556  A
O1376     Cd1379   2.080       .  S
Zn1377     O1388   2.013       .  S
Zn1377     O1390   2.023       .  S
Zn1377     O1382   1.948       .  S
O1378      C1389   1.278       .  A
O1378     Cd1383   2.092       .  S
Cd1379     O1381   2.072       .  S
Cd1379     O1382   1.998   1_556  S
Cd1380     O1384   2.083       .  S
Cd1380     O1393   2.083       .  S
Cd1380     O1382   2.009   1_556  S
O1381      C1391   1.274       .  A
O1382     Cd1383   2.005       .  S
Cd1383     O1385   2.072       .  S
O1384      C1391   1.278       .  A
C1386      C1622   1.488       .  S
C1386      O1390   1.273       .  A
C1387      C1709   1.502       .  S
C1389      C1677   1.495   1_554  S
C1391      C1430   1.490       .  S
C1392      C1645   1.487       .  S
C1392      O1393   1.275       .  A
O1394      C1410   1.276       .  A
O1394     Zn1400   2.030       .  S
C1395      C1462   1.483       .  S
C1395      O1411   1.272       .  A
C1395      O1408   1.275       .  A
O1396      C1409   1.276       .  A
O1396     Cd1403   2.082       .  S
O1397      C1415   1.274       .  A
O1397     Cd1406   2.074       .  S
O1398      C1412   1.277       .  A
O1398     Cd1402   2.085       .  S
O1399      C1410   1.274       .  A
O1399     Cd1402   2.084       .  S
Zn1400     O1411   2.015       .  S
Zn1400     O1413   2.029       .  S
Zn1400     O1405   1.952       .  S
O1401      C1412   1.274       .  A
O1401     Cd1406   2.072       .  S
Cd1402     O1404   2.071       .  S
Cd1402     O1405   2.007       .  S
Cd1403     O1407   2.090       .  S
Cd1403     O1416   2.095       .  S
Cd1403     O1405   2.011       .  S
O1404      C1414   1.274       .  A
O1405     Cd1406   2.000       .  S
Cd1406     O1408   2.073       .  S
O1407      C1414   1.279       .  A
C1409      C1581   1.493       .  S
C1409      O1413   1.276       .  A
C1410      C1494   1.501       .  S
C1412      C1526   1.489       .  S
C1414      C1421   1.489       .  S
C1415      C1549   1.497       .  S
C1415      O1416   1.278       .  A
C1417      C1418   1.400       .  A
C1417      C1422   1.407       .  A
C1417      H1427   1.083       .  S
C1418      C1419   1.416       .  A
C1418      C1423   1.487       .  S
C1419      C1420   1.409       .  A
C1419      C1424   1.519       .  S
C1420      C1421   1.407       .  A
C1420      H1425   1.083       .  S
C1421      C1422   1.423       .  A
C1422      C1426   1.520       .  S
C1423      C1428   1.416       .  A
C1423      C1432   1.401       .  A
C1424      F1440   1.382       .  S
C1424      F1441   1.383       .  S
C1424      F1442   1.385       .  S
C1426      F1437   1.383       .  S
C1426      F1438   1.385       .  S
C1426      F1439   1.383       .  S
C1428      C1429   1.408       .  A
C1428      C1433   1.520       .  S
C1429      C1430   1.407       .  A
C1429      H1434   1.083       .  S
C1430      C1431   1.423       .  A
C1431      C1432   1.409       .  A
C1431      C1435   1.520       .  S
C1432      H1436   1.083       .  S
C1433      F1446   1.384       .  S
C1433      F1447   1.382       .  S
C1433      F1448   1.382       .  S
C1435      F1443   1.385       .  S
C1435      F1444   1.384       .  S
C1435      F1445   1.383       .  S
C1449      C1450   1.401       .  A
C1449      C1454   1.407       .  A
C1449      H1459   1.083       .  S
C1450      C1451   1.415       .  A
C1450      C1455   1.482       .  S
C1451      C1452   1.405       .  A
C1451      C1456   1.519       .  S
C1452      C1453   1.405       .  A
C1452      H1457   1.083       .  S
C1453      C1454   1.421       .  A
C1454      C1458   1.520       .  S
C1455      C1460   1.415       .  A
C1455      C1464   1.400       .  A
C1456      F1472   1.382       .  S
C1456      F1473   1.382       .  S
C1456      F1474   1.385       .  S
C1458      F1469   1.382       .  S
C1458      F1470   1.385       .  S
C1458      F1471   1.383       .  S
C1460      C1461   1.405       .  A
C1460      C1465   1.520       .  S
C1461      C1462   1.405       .  A
C1461      H1466   1.083       .  S
C1462      C1463   1.422       .  A
C1463      C1464   1.407       .  A
C1463      C1467   1.520       .  S
C1464      H1468   1.083       .  S
C1465      F1478   1.384       .  S
C1465      F1479   1.382       .  S
C1465      F1480   1.382       .  S
C1467      F1475   1.385       .  S
C1467      F1476   1.383       .  S
C1467      F1477   1.382       .  S
C1481      C1482   1.403       .  A
C1481      C1486   1.408       .  A
C1481      H1491   1.083       .  S
C1482      C1483   1.418       .  A
C1482      C1487   1.488       .  S
C1483      C1484   1.407       .  A
C1483      C1488   1.519       .  S
C1484      C1485   1.402       .  A
C1484      H1489   1.083       .  S
C1485      C1486   1.416       .  A
C1486      C1490   1.517       .  S
C1487      C1492   1.413       .  A
C1487      C1496   1.400       .  A
C1488      F1504   1.382       .  S
C1488      F1505   1.382       .  S
C1488      F1506   1.385       .  S
C1490      F1501   1.385       .  S
C1490      F1502   1.382       .  S
C1490      F1503   1.383       .  S
C1492      C1493   1.409       .  A
C1492      C1497   1.520       .  S
C1493      C1494   1.411       .  A
C1493      H1498   1.082       .  S
C1494      C1495   1.428       .  A
C1495      C1496   1.411       .  A
C1495      C1499   1.521       .  S
C1496      H1500   1.083       .  S
C1497      F1510   1.384       .  S
C1497      F1511   1.383       .  S
C1497      F1512   1.382       .  S
C1499      F1507   1.385       .  S
C1499      F1508   1.384       .  S
C1499      F1509   1.383       .  S
C1513      C1514   1.402       .  A
C1513      C1518   1.405       .  A
C1513      H1523   1.083       .  S
C1514      C1515   1.417       .  A
C1514      C1519   1.483       .  S
C1515      C1516   1.406       .  A
C1515      C1520   1.519       .  S
C1516      C1517   1.401       .  A
C1516      H1521   1.083       .  S
C1517      C1518   1.415       .  A
C1518      C1522   1.518       .  S
C1519      C1524   1.415       .  A
C1519      C1528   1.398       .  A
C1520      F1536   1.382       .  S
C1520      F1537   1.382       .  S
C1520      F1538   1.385       .  S
C1522      F1533   1.382       .  S
C1522      F1534   1.385       .  S
C1522      F1535   1.383       .  S
C1524      C1525   1.409       .  A
C1524      C1529   1.519       .  S
C1525      C1526   1.406       .  A
C1525      H1530   1.083       .  S
C1526      C1527   1.423       .  A
C1527      C1528   1.405       .  A
C1527      C1531   1.516       .  S
C1528      H1532   1.083       .  S
C1529      F1542   1.384       .  S
C1529      F1543   1.382       .  S
C1529      F1544   1.382       .  S
C1531      F1539   1.382       .  S
C1531      F1540   1.383       .  S
C1531      F1541   1.385       .  S
C1545      C1546   1.396       .  A
C1545      C1550   1.406       .  A
C1545      H1555   1.083       .  S
C1546      C1547   1.415       .  A
C1546      C1551   1.484       .  S
C1547      C1548   1.411       .  A
C1547      C1552   1.519       .  S
C1548      C1549   1.409       .  A
C1548      H1553   1.083       .  S
C1549      C1550   1.426       .  A
C1550      C1554   1.516       .  S
C1551      C1556   1.417       .  A
C1551      C1560   1.402       .  A
C1552      F1568   1.382       .  S
C1552      F1569   1.382       .  S
C1552      F1570   1.384       .  S
C1554      F1565   1.382       .  S
C1554      F1566   1.385       .  S
C1554      F1567   1.380       .  S
C1556      C1557   1.407       .  A
C1556      C1561   1.519       .  S
C1557      C1558   1.402       .  A
C1557      H1562   1.083       .  S
C1558      C1559   1.415       .  A
C1559      C1560   1.406       .  A
C1559      C1563   1.518       .  S
C1560      H1564   1.083       .  S
C1561      F1574   1.385       .  S
C1561      F1575   1.382       .  S
C1561      F1576   1.382       .  S
C1563      F1571   1.384       .  S
C1563      F1572   1.382       .  S
C1563      F1573   1.382       .  S
C1577      C1578   1.402       .  A
C1577      C1582   1.410       .  A
C1577      H1587   1.083       .  S
C1578      C1579   1.417       .  A
C1578      C1583   1.492       .  S
C1579      C1580   1.409       .  A
C1579      C1584   1.519       .  S
C1580      C1581   1.407       .  A
C1580      H1585   1.083       .  S
C1581      C1582   1.423       .  A
C1582      C1586   1.520       .  S
C1583      C1588   1.418       .  A
C1583      C1592   1.402       .  A
C1584      F1600   1.382       .  S
C1584      F1601   1.383       .  S
C1584      F1602   1.385       .  S
C1586      F1597   1.385       .  S
C1586      F1598   1.382       .  S
C1586      F1599   1.384       .  S
C1588      C1589   1.410       .  A
C1588      C1593   1.519       .  S
C1589      C1590   1.405       .  A
C1589      H1594   1.083       .  S
C1590      C1591   1.421       .  A
C1591      C1592   1.407       .  A
C1591      C1595   1.519       .  S
C1592      H1596   1.084       .  S
C1593      F1606   1.385       .  S
C1593      F1607   1.382       .  S
C1593      F1608   1.383       .  S
C1595      F1603   1.384       .  S
C1595      F1604   1.381       .  S
C1595      F1605   1.383       .  S
C1609      C1610   1.402       .  A
C1609      C1614   1.405       .  A
C1609      H1619   1.083       .  S
C1610      C1611   1.417   1_554  A
C1610      C1615   1.482       .  S
C1611      C1612   1.406       .  A
C1611      C1616   1.519       .  S
C1612      C1613   1.401   1_556  A
C1612      H1617   1.083       .  S
C1613      C1614   1.415       .  A
C1614      C1618   1.518       .  S
C1615      C1620   1.414       .  A
C1615      C1624   1.399       .  A
C1616      F1632   1.382       .  S
C1616      F1633   1.382       .  S
C1616      F1634   1.385       .  S
C1618      F1629   1.383       .  S
C1618      F1630   1.384       .  S
C1618      F1631   1.382       .  S
C1620      C1621   1.407       .  A
C1620      C1625   1.519   1_554  S
C1621      C1622   1.407       .  A
C1621      H1626   1.083   1_554  S
C1622      C1623   1.423       .  A
C1623      C1624   1.407       .  A
C1623      C1627   1.517       .  S
C1624      H1628   1.083       .  S
C1625      F1638   1.385       .  S
C1625      F1639   1.382   1_556  S
C1625      F1640   1.382       .  S
C1627      F1635   1.382       .  S
C1627      F1636   1.383   1_554  S
C1627      F1637   1.385       .  S
C1641      C1642   1.402   1_556  A
C1641      C1646   1.409       .  A
C1641      H1651   1.083       .  S
C1642      C1643   1.415       .  A
C1642      C1647   1.487   1_554  S
C1643      C1644   1.406       .  A
C1643      C1648   1.520       .  S
C1644      C1645   1.406   1_554  A
C1644      H1649   1.083       .  S
C1645      C1646   1.421       .  A
C1646      C1650   1.519       .  S
C1647      C1652   1.417       .  A
C1647      C1656   1.401   1_556  A
C1648      F1664   1.382       .  S
C1648      F1665   1.382   1_554  S
C1648      F1666   1.385       .  S
C1650      F1661   1.382       .  S
C1650      F1662   1.385   1_556  S
C1650      F1663   1.384   1_556  S
C1652      C1653   1.408       .  A
C1652      C1657   1.519       .  S
C1653      C1654   1.403   1_556  A
C1653      H1658   1.083       .  S
C1654      C1655   1.419       .  A
C1655      C1656   1.405       .  A
C1655      C1659   1.520       .  S
C1656      H1660   1.084       .  S
C1657      F1670   1.384       .  S
C1657      F1671   1.382       .  S
C1657      F1672   1.383       .  S
C1659      F1667   1.383       .  S
C1659      F1668   1.381       .  S
C1659      F1669   1.383       .  S
C1673      C1674   1.401       .  A
C1673      C1678   1.409       .  A
C1673      H1683   1.083       .  S
C1674      C1675   1.416   1_556  A
C1674      C1679   1.492       .  S
C1675      C1676   1.411       .  A
C1675      C1680   1.519       .  S
C1676      C1677   1.408   1_554  A
C1676      H1681   1.083       .  S
C1677      C1678   1.424       .  A
C1678      C1682   1.520       .  S
C1679      C1684   1.418   1_556  A
C1679      C1688   1.405       .  A
C1680      F1696   1.382   1_554  S
C1680      F1697   1.382       .  S
C1680      F1698   1.385       .  S
C1682      F1693   1.385       .  S
C1682      F1694   1.382       .  S
C1682      F1695   1.383   1_556  S
C1684      C1685   1.408       .  A
C1684      C1689   1.520       .  S
C1685      C1686   1.402   1_554  A
C1685      H1690   1.083       .  S
C1686      C1687   1.417       .  A
C1687      C1688   1.411       .  A
C1687      C1691   1.518       .  S
C1688      H1692   1.083       .  S
C1689      F1702   1.384       .  S
C1689      F1703   1.382       .  S
C1689      F1704   1.382       .  S
C1691      F1699   1.384       .  S
C1691      F1700   1.383       .  S
C1691      F1701   1.382       .  S
C1705      C1706   1.398       .  A
C1705      C1710   1.409       .  A
C1705      H1715   1.083       .  S
C1706      C1707   1.412   1_554  A
C1706      C1711   1.484       .  S
C1707      C1708   1.408       .  A
C1707      C1712   1.520       .  S
C1708      C1709   1.411   1_556  A
C1708      H1713   1.082       .  S
C1709      C1710   1.429       .  A
C1710      C1714   1.519       .  S
C1711      C1716   1.416       .  A
C1711      C1720   1.402   1_554  A
C1712      F1728   1.382       .  S
C1712      F1729   1.382       .  S
C1712      F1730   1.384       .  S
C1714      F1725   1.383       .  S
C1714      F1726   1.385       .  S
C1714      F1727   1.381       .  S
C1716      C1717   1.406       .  A
C1716      C1721   1.519       .  S
C1717      C1718   1.404   1_554  A
C1717      H1722   1.083       .  S
C1718      C1719   1.419       .  A
C1719      C1720   1.404       .  A
C1719      C1723   1.520       .  S
C1720      H1724   1.085       .  S
C1721      F1734   1.385       .  S
C1721      F1735   1.382       .  S
C1721      F1736   1.381       .  S
C1723      F1731   1.383       .  S
C1723      F1732   1.381       .  S
C1723      F1733   1.384       .  S
