geometry optimzed in LAMMPS
_audit_creation_date              2020-11-30 
_audit_creation_method            'lammps2cif' 
_symmetry_space_group_name_H-M    'P1' 
_symmetry_Int_Tables_number       1 
_symmetry_cell_setting            triclinic 
loop_ 
_symmetry_equiv_pos_as_xyz 
  x,y,z 
_cell_length_a                    34.65718052 
_cell_length_b                    36.97355227780268 
_cell_length_c                    34.61562765717132 
_cell_angle_alpha                 89.79411768016935 
_cell_angle_beta                  90.02002301843473 
_cell_angle_gamma                 90.1125358998793 
loop_ 
_atom_site_label 
_atom_site_type_symbol 
_atom_site_fract_x 
_atom_site_fract_y 
_atom_site_fract_z 
_atom_site_charge 
N1          N  0.45165954  0.46331378  0.43111431    -0.04700
N2          N  0.44459694  0.43914520  0.40409810    -0.56900
N3          N  0.42507083  0.54536814  0.46077497    -0.04400
N4          N  0.39896810  0.57054799  0.45401160    -0.59000
N5          N  0.45188424  0.54602285  0.43391634    -0.04000
N6          N  0.44453735  0.57164117  0.40839408    -0.56800
N7          N  0.42457179  0.46247575  0.45772020    -0.03700
N8          N  0.39844772  0.43769015  0.44913751    -0.59300
C9          C  0.41141290  0.42314302  0.41567035     0.97400
C10         C  0.41154911  0.58693462  0.42130934     0.97200
N11         N  0.45200208  0.54167747  0.57893315    -0.04900
N12         N  0.44471340  0.56592964  0.60581979    -0.57400
N13         N  0.42466013  0.46003010  0.54923514    -0.03000
N14         N  0.39709571  0.43635087  0.55628170    -0.58700
N15         N  0.45116022  0.45880693  0.57648846    -0.04900
N16         N  0.44193874  0.43403712  0.60260727    -0.57700
N17         N  0.42522832  0.54259462  0.55197149    -0.02700
N18         N  0.39930350  0.56754177  0.56001789    -0.58800
Mn19       Mn  0.42392528  0.50259464  0.50493444     1.18400
C20         C  0.41184185  0.58207949  0.59361204     0.99500
C21         C  0.40817144  0.42008714  0.58946772     1.00200
N22         N  0.54262211  0.54603829  0.43379771    -0.05000
N23         N  0.54910417  0.57255483  0.40908009    -0.61300
N24         N  0.56962582  0.46219661  0.45741796    -0.03800
N25         N  0.59555185  0.43731586  0.44904100    -0.62000
N26         N  0.54251645  0.46303742  0.43083494    -0.04500
N27         N  0.54935103  0.43863922  0.40398176    -0.61500
N28         N  0.56966445  0.54525506  0.46042854    -0.03400
N29         N  0.59506361  0.57133065  0.45436599    -0.62200
Mn30       Mn  0.49719490  0.50461449  0.43145966     1.10700
C31         C  0.58179698  0.58830963  0.42227589     1.00700
C32         C  0.58243971  0.42261710  0.41572798     1.00800
N33         N  0.54290042  0.45879998  0.57583045    -0.04500
N34         N  0.55029780  0.43299783  0.60114704    -0.59900
N35         N  0.56990699  0.54221415  0.55090823    -0.03800
N36         N  0.59551443  0.56788322  0.55713432    -0.56600
N37         N  0.54357814  0.54197650  0.57828862    -0.05100
N38         N  0.55103282  0.56764781  0.60379174    -0.59400
N39         N  0.56945694  0.45936560  0.54865366    -0.04100
N40         N  0.59533450  0.43389434  0.55493609    -0.56600
Mn41       Mn  0.49749991  0.50024162  0.57861718     1.20200
Mn42       Mn  0.57073022  0.50215489  0.50441290     1.10100
Cl43       Cl  0.49731548  0.50232589  0.50490672    -0.84600
C44         C  0.58294483  0.41749105  0.58767187     0.97800
C45         C  0.58353130  0.58377453  0.59008721     0.97600
N46         N  0.94947326  0.46304129  0.93302197    -0.04700
N47         N  0.94146056  0.43701656  0.90832571    -0.56900
N48         N  0.92439947  0.54681604  0.95847010    -0.04400
N49         N  0.89891810  0.57255002  0.95173399    -0.59000
N50         N  0.95052767  0.54610584  0.93087561    -0.04000
N51         N  0.94317768  0.57129767  0.90484709    -0.56800
N52         N  0.92338036  0.46387457  0.96062197    -0.03700
N53         N  0.89711241  0.43854406  0.95511985    -0.59300
C54         C  0.90882389  0.42176129  0.92250352     0.97400
C55         C  0.91101143  0.58779518  0.91823679     0.97200
N56         N  0.95360362  0.54927310  0.07567226    -0.04900
N57         N  0.94602904  0.57432128  0.10171582    -0.57400
N58         N  0.92594853  0.46547572  0.05150325    -0.03000
N59         N  0.90105098  0.43942427  0.05923829    -0.58700
N60         N  0.95328560  0.46627090  0.07785750    -0.04900
N61         N  0.94752889  0.44079436  0.10397980    -0.57700
N62         N  0.92620983  0.54842983  0.04935843    -0.02700
N63         N  0.89968942  0.57285981  0.05691667    -0.58800
Mn64       Mn  0.92393825  0.50614149  0.00498753     1.18400
C65         C  0.91234594  0.58909043  0.08951583     0.99500
C66         C  0.91491657  0.42405488  0.09198972     1.00200
N67         N  0.04201480  0.54523283  0.92818641    -0.05000
N68         N  0.04860039  0.57103309  0.90246852    -0.61300
N69         N  0.06763656  0.46154225  0.95667693    -0.03800
N70         N  0.09221100  0.43497576  0.95044921    -0.62000
N71         N  0.04045702  0.46165336  0.93012448    -0.04500
N72         N  0.04615072  0.43516579  0.90526511    -0.61500
N73         N  0.06956059  0.54481939  0.95437202    -0.03400
N74         N  0.09534214  0.57019301  0.94694988    -0.62200
Mn75       Mn  0.99558170  0.50406326  0.92930777     1.10700
C76         C  0.08196713  0.58654594  0.91457904     1.00700
C77         C  0.07846425  0.41852788  0.91836792     1.00800
N78         N  0.04326367  0.46519064  0.07523124    -0.04500
N79         N  0.04925411  0.43957049  0.10107660    -0.59900
N80         N  0.07148769  0.54676633  0.04517153    -0.03800
N81         N  0.09808234  0.57177761  0.05078487    -0.56600
N82         N  0.04513876  0.54821514  0.07250500    -0.05100
N83         N  0.05340818  0.57418268  0.09718319    -0.59400
N84         N  0.06927856  0.46354758  0.04762133    -0.04100
N85         N  0.09348799  0.43672491  0.05424807    -0.56600
Mn86       Mn  0.99894180  0.50749002  0.07642374     1.20200
Mn87       Mn  0.07063772  0.50408665  0.00093933     1.10100
Cl88       Cl  0.99727502  0.50559645  0.00285845    -0.84600
C89         C  0.08055939  0.42182545  0.08764929     0.97800
C90         C  0.08641272  0.58891115  0.08324137     0.97600
C91         C  0.75242718  0.25421272  0.75069483    -0.01100
N92         N  0.54741790  0.04655850  0.92815828    -0.04700
N93         N  0.55716156  0.07161622  0.90269545    -0.56900
N94         N  0.57096684  0.96213717  0.95280454    -0.04400
N95         N  0.59605895  0.93626228  0.94593233    -0.59000
N96         N  0.54505520  0.96372507  0.92504460    -0.04000
N97         N  0.55216770  0.93889239  0.89870152    -0.56800
N98         N  0.57353559  0.04463638  0.95569393    -0.03700
N99         N  0.60135429  0.06827657  0.94952615    -0.59300
C100        C  0.59081537  0.08517329  0.91649486     0.97400
C101        C  0.58400054  0.92176481  0.91220782     0.97200
N102        N  0.54302069  0.95818583  0.07020672    -0.04900
N103        N  0.55053472  0.93252644  0.09579719    -0.57400
N104        N  0.57155329  0.04194638  0.04625983    -0.03000
N105        N  0.59678233  0.06784846  0.05326332    -0.58700
N106        N  0.54440728  0.04159839  0.07281080    -0.04900
N107        N  0.55066101  0.06737944  0.09835735    -0.57700
N108        N  0.56999916  0.95900777  0.04348112    -0.02700
N109        N  0.59625108  0.93409063  0.05035190    -0.58800
Mn110      Mn  0.57237918  0.00188175  0.99960792     1.18400
C111        C  0.58379696  0.91750758  0.08291971     0.99500
C112        C  0.58341639  0.08369872  0.08579242     1.00200
N113        N  0.45414864  0.96561638  0.92294725    -0.05000
N114        N  0.44735575  0.94166401  0.89564203    -0.61300
N115        N  0.42839685  0.04753894  0.95318069    -0.03800
N116        N  0.40243740  0.07279254  0.94626918    -0.62000
N117        N  0.45562017  0.04837021  0.92665447    -0.04500
N118        N  0.44844887  0.07407635  0.90109679    -0.61500
N119        N  0.42683844  0.96444582  0.94936798    -0.03400
N120        N  0.40096090  0.93955618  0.94039454    -0.62200
Mn121      Mn  0.50055157  0.00623843  0.92462399     1.10700
C122        C  0.41419159  0.92537417  0.90683207     1.00700
C123        C  0.41532231  0.08936634  0.91381410     1.00800
N124        N  0.45358598  0.04293853  0.07136117    -0.04500
N125        N  0.44708326  0.06811914  0.09749905    -0.59900
N126        N  0.42508174  0.96127078  0.04132935    -0.03800
N127        N  0.39770364  0.93722895  0.04820166    -0.56600
N128        N  0.45156927  0.95993637  0.06859879    -0.05100
N129        N  0.44273134  0.93486454  0.09432623    -0.59400
N130        N  0.42701727  0.04404244  0.04418426    -0.04100
N131        N  0.40185412  0.06984170  0.05144992    -0.56600
Mn132      Mn  0.49812559  0.00053527  0.07187944     1.20200
Mn133      Mn  0.42575763  0.00422523  0.99699504     1.10100
Cl134      Cl  0.49914801  0.00317406  0.99826631    -0.84600
C135        C  0.41477377  0.08482111  0.08466350     0.97800
C136        C  0.40916653  0.92068054  0.08122493     0.97600
C137        C  0.24516147  0.75537028  0.74893359    -0.01100
N138        N  0.95067565  0.04745019  0.56833911    -0.04700
N139        N  0.94380591  0.07302600  0.59389261    -0.56900
N140        N  0.92413444  0.96452397  0.54185799    -0.04400
N141        N  0.89830418  0.93899969  0.54846579    -0.59000
N142        N  0.95088357  0.96411617  0.56878801    -0.04000
N143        N  0.94365775  0.93832216  0.59431813    -0.56800
N144        N  0.92425014  0.04788995  0.54106597    -0.03700
N145        N  0.89891291  0.07383813  0.54750234    -0.59300
C146        C  0.91154721  0.08946294  0.58052318     0.97400
C147        C  0.91080030  0.92263129  0.58119354     0.97200
N148        N  0.95236296  0.96348769  0.42479493    -0.04900
N149        N  0.94581918  0.93681683  0.40039946    -0.57400
N150        N  0.92513574  0.04704913  0.44981760    -0.03000
N151        N  0.89973634  0.07269511  0.44232441    -0.58700
N152        N  0.95201626  0.04651345  0.42300185    -0.04900
N153        N  0.94545148  0.07176885  0.39686184    -0.57700
N154        N  0.92554833  0.96403823  0.45168569    -0.02700
N155        N  0.90049034  0.93771128  0.44633167    -0.58800
Mn156      Mn  0.92365765  0.00601848  0.49603249     1.18400
C157        C  0.91347862  0.92080618  0.41436438     0.99500
C158        C  0.91284972  0.08809180  0.40926026     1.00200
N159        N  0.04213299  0.96482264  0.56895144    -0.05000
N160        N  0.04871721  0.93917584  0.59471977    -0.61300
N161        N  0.06813269  0.04848197  0.54146728    -0.03800
N162        N  0.09306750  0.07466243  0.54851266    -0.62000
N163        N  0.04117380  0.04769153  0.56822088    -0.04500
N164        N  0.04721896  0.07321765  0.59394355    -0.61500
N165        N  0.06953511  0.96527644  0.54261753    -0.03400
N166        N  0.09527087  0.93986909  0.55011363    -0.62200
Mn167      Mn  0.99627563  0.00590813  0.56966398     1.10700
C168        C  0.08187457  0.92359670  0.58263644     1.00700
C169        C  0.07951110  0.08997802  0.58125764     1.00800
N170        N  0.04263708  0.04751767  0.42288400    -0.04500
N171        N  0.04900823  0.07284668  0.39666920    -0.59900
N172        N  0.07045107  0.96511320  0.45138110    -0.03800
N173        N  0.09678582  0.94016203  0.44492110    -0.56600
N174        N  0.04385574  0.96445413  0.42425575    -0.05100
N175        N  0.05176850  0.93912388  0.39867444    -0.59400
N176        N  0.06946608  0.04836617  0.44978430    -0.04100
N177        N  0.09467780  0.07432757  0.44215605    -0.56600
Mn178      Mn  0.99764967  0.00536300  0.42258427     1.20200
Mn179      Mn  0.07060576  0.00689908  0.49637710     1.10100
Cl180      Cl  0.99709099  0.00603969  0.49615259    -0.84600
C181        C  0.08148207  0.08963993  0.40898787     0.97800
C182        C  0.08477039  0.92398184  0.41204034     0.97600
C183        C  0.74626188  0.75372015  0.25544563    -0.01100
C184        C  0.25163669  0.25488038  0.24622489    -0.01100
C185        C  0.74403137  0.25550657  0.24876029    -0.01100
C186        C  0.24915268  0.75339341  0.25274027    -0.01100
C187        C  0.24042356  0.25207149  0.75242484    -0.01100
C188        C  0.74888095  0.75439913  0.74982423    -0.01100
C189        C  0.20017658  0.17135924  0.69177532     0.14100
C190        C  0.17055154  0.18830561  0.67125727     0.01000
C191        C  0.16527342  0.22555649  0.67469341     0.16000
C192        C  0.18810805  0.24547493  0.70022268     0.25400
C193        C  0.21667368  0.22844619  0.72359565    -0.40900
C194        C  0.22373116  0.19108247  0.71671155     0.32400
C195        C  0.14450338  0.16636448  0.64737229     0.01100
F196        F  0.13719644  0.24248487  0.65412515    -0.13200
F197        F  0.25447149  0.17336421  0.73176473    -0.13800
C198        C  0.11747540  0.14378881  0.66549634     0.16000
C199        C  0.09531245  0.11986621  0.64375844     0.25400
C200        C  0.10023598  0.11786178  0.60344108    -0.40900
C201        C  0.12668911  0.14126655  0.58517853     0.30800
C202        C  0.14852872  0.16558525  0.60706975     0.14100
F203        F  0.11343272  0.14421946  0.70451692    -0.13200
F204        F  0.13171981  0.14032554  0.54629381    -0.13800
F205        F  0.07057799  0.09735743  0.66254456    -0.16000
F206        F  0.17459872  0.18739038  0.58919616    -0.14600
F207        F  0.20667996  0.13541434  0.68712097    -0.14600
F208        F  0.18111412  0.28144719  0.70325062    -0.16000
C209        C  0.17346798  0.22737341  0.32125734     0.14100
C210        C  0.16809182  0.19050738  0.31424325     0.01000
C211        C  0.18724315  0.17450439  0.28313012     0.16000
C212        C  0.21363062  0.19430728  0.26083265     0.25400
C213        C  0.22206256  0.23114329  0.26946893    -0.40900
C214        C  0.19899935  0.24766733  0.29850861     0.32400
C215        C  0.14400888  0.16803824  0.34031072     0.01100
F216        F  0.18051949  0.13926803  0.27443267    -0.13200
F217        F  0.20258282  0.28341844  0.30642619    -0.13800
C218        C  0.10679295  0.15719114  0.32937666     0.16000
C219        C  0.08585926  0.13276035  0.35235197     0.25400
C220        C  0.10198634  0.11845908  0.38667015    -0.40900
C221        C  0.13879390  0.13073734  0.39820195     0.32400
C222        C  0.15949908  0.15526819  0.37521114     0.14100
F223        F  0.09100472  0.16983175  0.29606666    -0.13200
F224        F  0.15546633  0.11822132  0.43110041    -0.13800
F225        F  0.05008730  0.12269176  0.34048785    -0.16000
F226        F  0.19543826  0.16561259  0.38629701    -0.14600
F227        F  0.15419065  0.24374380  0.35049494    -0.14600
F228        F  0.22912231  0.17719568  0.22995652    -0.16000
C229        C  0.82662516  0.78586366  0.67607832     0.14100
C230        C  0.81837657  0.82256489  0.67105217     0.01000
C231        C  0.78575575  0.83711278  0.68902342     0.16000
C232        C  0.76265529  0.81581963  0.71326633     0.25400
C233        C  0.77241090  0.77916071  0.72148538    -0.40900
C234        C  0.80345106  0.76423883  0.69989293     0.32400
C235        C  0.84328348  0.84570972  0.64646027     0.01100
F236        F  0.77628139  0.87234804  0.68324650    -0.13200
F237        F  0.81299597  0.72886027  0.70331619    -0.13800
C238        C  0.82856349  0.86104957  0.61242142     0.16000
C239        C  0.85103082  0.88486345  0.59040264     0.25400
C240        C  0.88867655  0.89427065  0.60232535    -0.40900
C241        C  0.90388163  0.87767798  0.63578308     0.32400
C242        C  0.88136147  0.85357620  0.65757330     0.14100
F243        F  0.79213271  0.85315176  0.60067510    -0.13200
F244        F  0.94031758  0.88509417  0.64785312    -0.13800
F245        F  0.83534273  0.89934758  0.55792742    -0.16000
F246        F  0.89626316  0.83885960  0.69032260    -0.14600
F247        F  0.85721622  0.77081645  0.65769207    -0.14600
F248        F  0.73017987  0.83145527  0.72717034    -0.16000
C249        C  0.21684946  0.82479896  0.32758488     0.14100
C250        C  0.17704960  0.81898227  0.33026732     0.01000
C251        C  0.16074553  0.78913576  0.31154410     0.16000
C252        C  0.18334252  0.76675248  0.28822953     0.25400
C253        C  0.22297294  0.77477995  0.28147289    -0.40900
C254        C  0.23963151  0.80258164  0.30442175     0.32400
C255        C  0.15238690  0.84461642  0.35173681     0.01100
F256        F  0.12270053  0.78141932  0.31618601    -0.13200
F257        F  0.27779950  0.81034908  0.30223209    -0.13800
C258        C  0.12337480  0.86391871  0.33227863     0.16000
C259        C  0.10082179  0.88918297  0.35196686     0.25400
C260        C  0.10701911  0.89573095  0.39156259    -0.40900
C261        C  0.13593838  0.87605588  0.41104498     0.32400
C262        C  0.15841153  0.85077510  0.39127238     0.14100
F263        F  0.11781717  0.85918847  0.29378298    -0.13200
F264        F  0.14243877  0.88109481  0.44933218    -0.13800
F265        F  0.07392791  0.90811767  0.33183256    -0.16000
F266        F  0.18602217  0.83216071  0.41077271    -0.14600
F267        F  0.23353733  0.85320389  0.34597320    -0.14600
F268        F  0.16605390  0.73680098  0.27374698    -0.16000
C269        C  0.84054421  0.84665014  0.39553985     0.14100
C270        C  0.84551964  0.84103793  0.35581460     0.01000
C271        C  0.87466163  0.85985711  0.33595969     0.16000
C272        C  0.89788288  0.88479635  0.35529160     0.25400
C273        C  0.89212050  0.89150120  0.39485701    -0.40900
C274        C  0.86369517  0.87165514  0.41498036     0.32400
C275        C  0.81984574  0.81638396  0.33442018     0.01100
F276        F  0.87955965  0.85511307  0.29738355    -0.13200
F277        F  0.85813128  0.87652196  0.45344357    -0.13800
C278        C  0.78035798  0.82361927  0.33134400     0.16000
C279        C  0.75699155  0.80258254  0.30737143     0.25400
C280        C  0.77292752  0.77480181  0.28403053    -0.40900
C281        C  0.81219707  0.76542040  0.29123820     0.32400
C282        C  0.83521157  0.78644072  0.31543890     0.14100
F283        F  0.76465778  0.85214299  0.35025888    -0.13200
F284        F  0.82871035  0.73515534  0.27673557    -0.13800
F285        F  0.71902320  0.81113203  0.30515450    -0.16000
F286        F  0.87280273  0.77730693  0.32067244    -0.14600
F287        F  0.81319359  0.82796457  0.41542398    -0.14600
F288        F  0.92473196  0.90351141  0.33478247    -0.16000
C289        C  0.80452110  0.17313028  0.28599474     0.14100
C290        C  0.82363372  0.18830200  0.31764983     0.01000
C291        C  0.81908015  0.22510628  0.32538890     0.16000
C292        C  0.79468199  0.24629783  0.30252159     0.25400
C293        C  0.77213939  0.23081220  0.27240107    -0.40900
C294        C  0.77964955  0.19393962  0.26326937     0.32400
C295        C  0.84848861  0.16547056  0.34232677     0.01100
F296        F  0.83851934  0.24065191  0.35510039    -0.13200
F297        F  0.76493831  0.17774212  0.23141632    -0.13800
C298        C  0.88158571  0.14926782  0.32688443     0.16000
C299        C  0.90325244  0.12504976  0.34903964     0.25400
C300        C  0.89199164  0.11636937  0.38713048    -0.40900
C301        C  0.85946451  0.13372269  0.40295877     0.32400
C302        C  0.83798556  0.15812227  0.38071774     0.14100
F303        F  0.89258876  0.15655382  0.29001665    -0.13200
F304        F  0.84792050  0.12668159  0.43970573    -0.13800
F305        F  0.93452306  0.10931056  0.33257973    -0.16000
F306        F  0.80600788  0.17353908  0.39616195    -0.14600
F307        F  0.80990305  0.13775936  0.27704039    -0.14600
F308        F  0.79187065  0.28193163  0.31118116    -0.16000
C309        C  0.18534218  0.78905930  0.65954871     0.14100
C310        C  0.16631898  0.81910538  0.67500149     0.01000
C311        C  0.17007418  0.82623984  0.71455248     0.16000
C312        C  0.19406986  0.80494155  0.73780535     0.25400
C313        C  0.21683521  0.77671868  0.72192171    -0.40900
C314        C  0.20968737  0.76777143  0.68253023     0.32400
C315        C  0.14365614  0.84372720  0.64967755     0.01100
F316        F  0.15167059  0.85491018  0.73054449    -0.13200
F317        F  0.22433987  0.73761732  0.66593878    -0.13800
C318        C  0.10467380  0.85107746  0.65750808     0.16000
C319        C  0.08433356  0.87634332  0.63519294     0.25400
C320        C  0.10256796  0.89477554  0.60442399    -0.40900
C321        C  0.14131486  0.88644902  0.59592188     0.32400
C322        C  0.16159194  0.86127298  0.61836065     0.14100
F323        F  0.08624914  0.83373877  0.68684314    -0.13200
F324        F  0.16021328  0.90356310  0.56676027    -0.13800
F325        F  0.04679126  0.88279988  0.64393914    -0.16000
F326        F  0.19936948  0.85508118  0.61041859    -0.14600
F327        F  0.17978096  0.77985642  0.62200473    -0.14600
F328        F  0.19682093  0.81358437  0.77575164    -0.16000
C329        C  0.67021250  0.18368905  0.21435696     0.14100
C330        C  0.66679910  0.19070774  0.17471088     0.01000
C331        C  0.68589578  0.22080432  0.15905585     0.16000
C332        C  0.70988419  0.24233973  0.18206421     0.25400
C333        C  0.71630658  0.23373940  0.22172299    -0.40900
C334        C  0.69346773  0.20545687  0.23767982     0.32400
C335        C  0.64418207  0.16593384  0.14970650     0.01100
F336        F  0.68079047  0.22979547  0.12132350    -0.13200
F337        F  0.69555621  0.19708214  0.27578521    -0.13800
C338        C  0.60549050  0.15780262  0.15833523     0.16000
C339        C  0.58542390  0.13170177  0.13706669     0.25400
C340        C  0.60360106  0.11334021  0.10647868    -0.40900
C341        C  0.64187025  0.12274588  0.09681562     0.32400
C342        C  0.66194446  0.14864037  0.11832226     0.14100
F343        F  0.58715280  0.17507154  0.18758835    -0.13200
F344        F  0.66056224  0.10600344  0.06743823    -0.13800
F345        F  0.54824272  0.12434232  0.14665780    -0.16000
F346        F  0.69940364  0.15566473  0.10949870    -0.14600
F347        F  0.65220117  0.15465825  0.23042095    -0.14600
F348        F  0.72504168  0.27232262  0.16520412    -0.16000
C349        C  0.31150816  0.21858364  0.15855642     0.14100
C350        C  0.33016170  0.18888377  0.17519229     0.01000
C351        C  0.32584202  0.18224646  0.21475137     0.16000
C352        C  0.30164955  0.20400384  0.23712944     0.25400
C353        C  0.27959869  0.23232952  0.22023545    -0.40900
C354        C  0.28726428  0.24052712  0.18065510     0.32400
C355        C  0.35252104  0.16372664  0.15083125     0.01100
F356        F  0.34400755  0.15371247  0.23151273    -0.13200
F357        F  0.27308200  0.27047127  0.16298192    -0.13800
C358        C  0.39280032  0.16117814  0.15431108     0.16000
C359        C  0.41331894  0.13590657  0.13234188     0.25400
C360        C  0.39378157  0.11300408  0.10639052    -0.40900
C361        C  0.35349659  0.11626424  0.10246998     0.32400
C362        C  0.33310766  0.14131191  0.12458700     0.14100
F363        F  0.41218457  0.18328434  0.17884991    -0.13200
F364        F  0.33349642  0.09414311  0.07844305    -0.13800
F365        F  0.45226399  0.13408831  0.13617431    -0.16000
F366        F  0.29410141  0.14291944  0.12132547    -0.14600
F367        F  0.31717550  0.22662453  0.12065811    -0.14600
F368        F  0.29823912  0.19591471  0.27520839    -0.16000
C369        C  0.32357228  0.86579484  0.11730708     0.14100
C370        C  0.33999135  0.84668099  0.14834392     0.01000
C371        C  0.37951575  0.85080231  0.15615318     0.16000
C372        C  0.40217080  0.87414808  0.13375795     0.25400
C373        C  0.38571145  0.89390389  0.10302242    -0.40900
C374        C  0.34617383  0.88912833  0.09478468     0.32400
C375        C  0.31582163  0.82314719  0.17326282     0.01100
F376        F  0.39596871  0.83298839  0.18630213    -0.13200
F377        F  0.32895205  0.90778934  0.06568670    -0.13800
C378        C  0.32405582  0.78626721  0.17702591     0.16000
C379        C  0.30220291  0.76433564  0.20170038     0.25400
C380        C  0.27215792  0.77890070  0.22483488    -0.40900
C381        C  0.26231898  0.81581546  0.21805734     0.32400
C382        C  0.28444100  0.83754371  0.19343141     0.14100
F383        F  0.35334032  0.77132584  0.15653068    -0.13200
F384        F  0.23037984  0.83126323  0.23338823    -0.13800
F385        F  0.31173353  0.72885996  0.20402935    -0.16000
F386        F  0.27518733  0.87304554  0.18948033    -0.14600
F387        F  0.28552169  0.86190484  0.10886709    -0.14600
F388        F  0.44021305  0.87752666  0.14242824    -0.16000
C389        C  0.65826273  0.85002029  0.88896604     0.14100
C390        C  0.65102066  0.84375394  0.84971299     0.01000
C391        C  0.62030244  0.86168684  0.83144804     0.16000
C392        C  0.59767301  0.88631176  0.85193784     0.25400
C393        C  0.60551226  0.89345897  0.89113154    -0.40900
C394        C  0.63571839  0.87456811  0.90955193     0.32400
C395        C  0.67611697  0.81929362  0.82740838     0.01100
F396        F  0.61312897  0.85628725  0.79332378    -0.13200
F397        F  0.64371950  0.87990761  0.94750617    -0.13800
C398        C  0.66084156  0.78818429  0.81042040     0.16000
C399        C  0.68369116  0.76643442  0.78679450     0.25400
C400        C  0.72263033  0.77612024  0.77821180    -0.40900
C401        C  0.73855793  0.80530058  0.79962245     0.32400
C402        C  0.71534042  0.82716058  0.82276318     0.14100
F403        F  0.62361490  0.77852722  0.81719803    -0.13200
F404        F  0.77629426  0.81444324  0.79625425    -0.13800
F405        F  0.66725173  0.73551597  0.77370332    -0.16000
F406        F  0.73096147  0.85694507  0.83953104    -0.14600
F407        F  0.68727437  0.83231642  0.90735815    -0.14600
F408        F  0.56902873  0.90398195  0.83295031    -0.16000
C409        C  0.27797024  0.17999497  0.82503299     0.14100
C410        C  0.31792003  0.18590072  0.82526232     0.01000
C411        C  0.33305742  0.21472375  0.80378117     0.16000
C412        C  0.30902579  0.23686112  0.78157880     0.25400
C413        C  0.26873367  0.22952961  0.77830158    -0.40900
C414        C  0.25369733  0.20175695  0.80255683     0.32400
C415        C  0.34392928  0.16243866  0.84834060     0.01100
F416        F  0.37139039  0.22230670  0.80530441    -0.13200
F417        F  0.21535506  0.19432223  0.80310955    -0.13800
C418        C  0.37421396  0.14372113  0.83032817     0.16000
C419        C  0.39850595  0.12118038  0.85185700     0.25400
C420        C  0.39261471  0.11646253  0.89183101    -0.40900
C421        C  0.36287422  0.13600722  0.90998393     0.32400
C422        C  0.33883921  0.15881724  0.88843332     0.14100
F423        F  0.37949015  0.14634619  0.79154561    -0.13200
F424        F  0.35706971  0.13318163  0.94866853    -0.13800
F425        F  0.42679099  0.10290191  0.83315264    -0.16000
F426        F  0.31070579  0.17762740  0.90677885    -0.14600
F427        F  0.26242740  0.15233472  0.84577026    -0.14600
F428        F  0.32574711  0.26658080  0.76576599    -0.16000
C429        C  0.70815425  0.83728436  0.19696318     0.14100
C430        C  0.67789489  0.82169586  0.17587818     0.01000
C431        C  0.67197011  0.78432925  0.17830756     0.16000
C432        C  0.69468416  0.76307427  0.20281090     0.25400
C433        C  0.72349542  0.77869418  0.22685621    -0.40900
C434        C  0.73136965  0.81615332  0.22118585     0.32400
C435        C  0.65318953  0.84437917  0.15059921     0.01100
F436        F  0.64415862  0.76825441  0.15666428    -0.13200
F437        F  0.76242871  0.83271202  0.23712147    -0.13800
C438        C  0.66972362  0.86463670  0.12048710     0.16000
C439        C  0.64694235  0.88742685  0.09772457     0.25400
C440        C  0.60701478  0.89068812  0.10480064    -0.40900
C441        C  0.59027420  0.86953270  0.13429453     0.32400
C442        C  0.61317309  0.84652292  0.15692545     0.14100
F443        F  0.70815325  0.86247586  0.11322208    -0.13200
F444        F  0.55179006  0.87118621  0.14138230    -0.13800
F445        F  0.66443849  0.90721653  0.06961706    -0.16000
F446        F  0.59646055  0.82714684  0.18583500    -0.14600
F447        F  0.71528237  0.87333827  0.19419238    -0.14600
F448        F  0.68712221  0.72710423  0.20423481    -0.16000
C449        C  0.34277742  0.85233466  0.87724309     0.14100
C450        C  0.35151671  0.84797116  0.83789727     0.01000
C451        C  0.38211201  0.86787688  0.82176407     0.16000
C452        C  0.40292037  0.89250796  0.84428847     0.25400
C453        C  0.39350511  0.89776580  0.88353718    -0.40900
C454        C  0.36343185  0.87705567  0.89982728     0.32400
C455        C  0.32715193  0.82427848  0.81338260     0.01100
F456        F  0.39168334  0.86362106  0.78401292    -0.13200
F457        F  0.35373013  0.88082830  0.93758621    -0.13800
C458        C  0.30648010  0.83888125  0.78227578     0.16000
C459        C  0.28115690  0.81742165  0.76071054     0.25400
C460        C  0.27417916  0.78059185  0.77088971    -0.40900
C461        C  0.29810792  0.76570213  0.80032108     0.32400
C462        C  0.32360030  0.78732102  0.82150045     0.14100
F463        F  0.31048585  0.87438838  0.77288326    -0.13200
F464        F  0.29575087  0.73020113  0.80996324    -0.13800
F465        F  0.26534035  0.83300835  0.72895269    -0.16000
F466        F  0.34493050  0.77204479  0.85012396    -0.14600
F467        F  0.31326704  0.83348431  0.89351037    -0.14600
F468        F  0.43146891  0.91199915  0.82718013    -0.16000
C469        C  0.87418877  0.14741335  0.66241926     0.14100
C470        C  0.84759116  0.16980485  0.64342819     0.01000
C471        C  0.84295578  0.16676925  0.60323551     0.16000
C472        C  0.86428040  0.14114149  0.58245496     0.25400
C473        C  0.89055371  0.11819202  0.60164588    -0.40900
C474        C  0.89551997  0.12194297  0.64182576     0.32400
C475        C  0.82320267  0.19435135  0.66658801     0.01100
F476        F  0.81772274  0.18852813  0.58421695    -0.13200
F477        F  0.91972566  0.09983335  0.66167707    -0.13800
C478        C  0.83985079  0.22271861  0.68750143     0.16000
C479        C  0.81801716  0.24253708  0.71403881     0.25400
C480        C  0.77869521  0.23357470  0.72140449    -0.40900
C481        C  0.76180368  0.20667792  0.69738779     0.32400
C482        C  0.78382579  0.18720906  0.67086955     0.14100
F483        F  0.87753723  0.23141900  0.68197243    -0.13200
F484        F  0.72400089  0.19773975  0.70088952    -0.13800
F485        F  0.83560862  0.27129460  0.73072297    -0.16000
F486        F  0.76692387  0.16012122  0.65053169    -0.14600
F487        F  0.87825471  0.14918859  0.70138985    -0.14600
F488        F  0.85929791  0.13887614  0.54362699    -0.16000
C489        C  0.67702064  0.14312170  0.88819008     0.14100
C490        C  0.66349718  0.15986699  0.85442936     0.01000
C491        C  0.62582008  0.15287927  0.84164827     0.16000
C492        C  0.60195948  0.12905197  0.86204832     0.25400
C493        C  0.61536246  0.11186700  0.89586572    -0.40900
C494        C  0.65317260  0.11941743  0.90887008     0.32400
C495        C  0.68874774  0.18388782  0.83153032     0.01100
F496        F  0.61251265  0.16850812  0.80869137    -0.13200
F497        F  0.66753639  0.10338334  0.94114816    -0.13800
C498        C  0.71974265  0.16963502  0.81074249     0.16000
C499        C  0.74086466  0.19144413  0.78528568     0.25400
C500        C  0.73082013  0.22841334  0.77931303    -0.40900
C501        C  0.70193497  0.24295444  0.80393866     0.32400
C502        C  0.68066584  0.22080599  0.82881508     0.14100
F503        F  0.72929224  0.13420657  0.81470500    -0.13200
F504        F  0.69264832  0.27854845  0.80247071    -0.13800
F505        F  0.77197646  0.17609152  0.76823983    -0.16000
F506        F  0.65170830  0.23538590  0.85006590    -0.14600
F507        F  0.71336787  0.14971840  0.90107041    -0.14600
F508        F  0.56591784  0.12258735  0.84831858    -0.16000
C509        C  0.17572784  0.28528465  0.17055594     0.14100
C510        C  0.17235405  0.32238408  0.17718890     0.01000
C511        C  0.19367285  0.33816160  0.20709274     0.16000
C512        C  0.21853550  0.31736325  0.22986387     0.25400
C513        C  0.22438170  0.27995594  0.22206026    -0.40900
C514        C  0.20084117  0.26431376  0.19280141     0.32400
C515        C  0.14622819  0.34478575  0.15332626     0.01100
F516        F  0.19026054  0.37407234  0.21448563    -0.13200
F517        F  0.20293151  0.22855046  0.18463110    -0.13800
C518        C  0.11579609  0.36370684  0.17067414     0.16000
C519        C  0.09322428  0.38749315  0.14892761     0.25400
C520        C  0.10097688  0.39308278  0.10936667    -0.40900
C521        C  0.13019129  0.37256838  0.09161426     0.32400
C522        C  0.15260212  0.34860569  0.11345142     0.14100
F523        F  0.10835302  0.35955895  0.20895314    -0.13200
F524        F  0.13753855  0.37605624  0.05325347    -0.13800
F525        F  0.06480565  0.40604253  0.16712443    -0.16000
F526        F  0.18159712  0.33022532  0.09597183    -0.14600
F527        F  0.15422225  0.26914756  0.14268229    -0.14600
F528        F  0.23460874  0.33417544  0.26066151    -0.16000
C529        C  0.16985001  0.64966287  0.11260261     0.14100
C530        C  0.15615825  0.66404745  0.14742556     0.01000
C531        C  0.11858378  0.65578817  0.15967087     0.16000
C532        C  0.09535339  0.63244289  0.13808113     0.25400
C533        C  0.10941009  0.61676303  0.10378321    -0.40900
C534        C  0.14666201  0.62637323  0.09080394     0.32400
C535        C  0.18133716  0.68677576  0.17180137     0.01100
F536        F  0.10487606  0.66939818  0.19335648    -0.13200
F537        F  0.16115958  0.61267388  0.05750614    -0.13800
C538        C  0.17303223  0.72337524  0.17709257     0.16000
C539        C  0.19555816  0.74444181  0.20183745     0.25400
C540        C  0.22591489  0.72898653  0.22405800    -0.40900
C541        C  0.23577924  0.69240991  0.21565303     0.32400
C542        C  0.21335053  0.67170117  0.19040459     0.14100
F543        F  0.14286160  0.73878833  0.15822412    -0.13200
F544        F  0.26784245  0.67638809  0.23017901    -0.13800
F545        F  0.18619529  0.77984567  0.20537571    -0.16000
F546        F  0.22276821  0.63652594  0.18437400    -0.14600
F547        F  0.20586285  0.65799281  0.09990290    -0.14600
F548        F  0.05937892  0.62473073  0.15130231    -0.16000
C549        C  0.82905874  0.64862153  0.12094794     0.14100
C550        C  0.84318410  0.66342013  0.15535192     0.01000
C551        C  0.88091583  0.65533454  0.16731050     0.16000
C552        C  0.90387989  0.63174002  0.14564102     0.25400
C553        C  0.88948337  0.61611862  0.11138997    -0.40900
C554        C  0.85192139  0.62536130  0.09905967     0.32400
C555        C  0.81779027  0.68611881  0.17941280     0.01100
F556        F  0.89504908  0.66945217  0.20061289    -0.13200
F557        F  0.83669202  0.61130823  0.06623291    -0.13800
C558        C  0.78603289  0.67066790  0.19825961     0.16000
C559        C  0.76195846  0.69169855  0.22149053     0.25400
C560        C  0.76990760  0.72902058  0.22760752    -0.40900
C561        C  0.80000763  0.74468143  0.20508389     0.32400
C562        C  0.82418408  0.72332739  0.18232654     0.14100
F563        F  0.77827043  0.63487322  0.19411306    -0.13200
F564        F  0.80766122  0.78062892  0.20687421    -0.13800
F565        F  0.73015691  0.67524078  0.23614098    -0.16000
F566        F  0.85392393  0.73906400  0.16299333    -0.14600
F567        F  0.79280347  0.65654193  0.10871397    -0.14600
F568        F  0.93986441  0.62380009  0.15861416    -0.16000
C569        C  0.18771105  0.72145521  0.83981671     0.14100
C570        C  0.16742648  0.69200884  0.82444695     0.01000
C571        C  0.16970026  0.68536069  0.78474195     0.16000
C572        C  0.19318823  0.70669050  0.76102002     0.25400
C573        C  0.21697928  0.73446418  0.77652380    -0.40900
C574        C  0.21147847  0.74292750  0.81626932     0.32400
C575        C  0.14467790  0.66746171  0.84975476     0.01100
F576        F  0.15036688  0.65701303  0.76903049    -0.13200
F577        F  0.22729806  0.77271569  0.83267624    -0.13800
C578        C  0.10491256  0.66253282  0.84369883     0.16000
C579        C  0.08425586  0.63683055  0.86526612     0.25400
C580        C  0.10302049  0.61557401  0.89342185    -0.40900
C581        C  0.14265608  0.62153268  0.90029158     0.32400
C582        C  0.16321813  0.64713162  0.87861075     0.14100
F583        F  0.08612204  0.68260540  0.81671998    -0.13200
F584        F  0.16207277  0.60160159  0.92693749    -0.13800
F585        F  0.04588825  0.63284249  0.85856778    -0.16000
F586        F  0.20172383  0.65097060  0.88467902    -0.14600
F587        F  0.18399541  0.72984262  0.87779234    -0.14600
F588        F  0.19461082  0.69828246  0.72295723    -0.16000
C589        C  0.83679878  0.65971579  0.89312846     0.14100
C590        C  0.84512371  0.66626049  0.85400711     0.01000
C591        C  0.87626375  0.64831010  0.83672131     0.16000
C592        C  0.89830287  0.62361192  0.85786682     0.25400
C593        C  0.88948102  0.61614341  0.89683546    -0.40900
C594        C  0.85873920  0.63487098  0.91439669     0.32400
C595        C  0.82050517  0.69046315  0.83042768     0.01100
F596        F  0.88440577  0.65365926  0.79875512    -0.13200
F597        F  0.84969450  0.62910372  0.95208680    -0.13800
C598        C  0.83633957  0.72075110  0.81193847     0.16000
C599        C  0.81405433  0.74183537  0.78682047     0.25400
C600        C  0.77511170  0.73231432  0.77818677    -0.40900
C601        C  0.75891832  0.70332916  0.79998866     0.32400
C602        C  0.78145074  0.68241991  0.82495053     0.14100
F603        F  0.87359539  0.73029020  0.81868557    -0.13200
F604        F  0.72144620  0.69365161  0.79577437    -0.13800
F605        F  0.83095571  0.77214298  0.77252345    -0.16000
F606        F  0.76530188  0.65329617  0.84273638    -0.14600
F607        F  0.80735030  0.67738446  0.91069895    -0.14600
F608        F  0.92740838  0.60610951  0.83958590    -0.16000
C609        C  0.14882215  0.34234272  0.89712713     0.14100
C610        C  0.14227816  0.33636820  0.85759003     0.01000
C611        C  0.11268028  0.35563818  0.83889533     0.16000
C612        C  0.09098227  0.38137068  0.85892369     0.25400
C613        C  0.09862060  0.38861785  0.89812721    -0.40900
C614        C  0.12729693  0.36824563  0.91719331     0.32400
C615        C  0.16742507  0.31169873  0.83502658     0.01100
F616        F  0.10594071  0.35073407  0.80061695    -0.13200
F617        F  0.13471605  0.37345182  0.95528717    -0.13800
C618        C  0.15139331  0.28331267  0.81365063     0.16000
C619        C  0.17412401  0.26309735  0.78826785     0.25400
C620        C  0.21390394  0.27155108  0.78252053    -0.40900
C621        C  0.23039981  0.29714471  0.80822206     0.32400
C622        C  0.20736508  0.31757129  0.83313475     0.14100
F623        F  0.11344738  0.27483898  0.81767766    -0.13200
F624        F  0.26878561  0.30438135  0.80728382    -0.13800
F625        F  0.15685751  0.23432789  0.77122800    -0.16000
F626        F  0.22397328  0.34442781  0.85403058    -0.14600
F627        F  0.17621106  0.32315281  0.91630009    -0.14600
F628        F  0.06371201  0.40030068  0.83930853    -0.16000
C629        C  0.82202080  0.28611851  0.17526739     0.14100
C630        C  0.82579120  0.32306117  0.18267424     0.01000
C631        C  0.80485439  0.33842419  0.21297994     0.16000
C632        C  0.77935549  0.31748871  0.23495722     0.25400
C633        C  0.77262336  0.28042739  0.22594653    -0.40900
C634        C  0.79644748  0.26497190  0.19688381     0.32400
C635        C  0.85108821  0.34594139  0.15846937     0.01100
F636        F  0.80899076  0.37410304  0.22127101    -0.13200
F637        F  0.79401364  0.22934499  0.18811373    -0.13800
C638        C  0.84181550  0.35208806  0.11954838     0.16000
C639        C  0.86337783  0.37655863  0.09748343     0.25400
C640        C  0.89472260  0.39528035  0.11402542    -0.40900
C641        C  0.90506150  0.38761884  0.15261650     0.32400
C642        C  0.88325269  0.36329882  0.17464754     0.14100
F643        F  0.81082815  0.33546798  0.10336925    -0.13200
F644        F  0.93538919  0.40455003  0.16963372    -0.13800
F645        F  0.85306452  0.38231920  0.06012636    -0.16000
F646        F  0.89311838  0.35709325  0.21205696    -0.14600
F647        F  0.84327281  0.27041797  0.14698120    -0.14600
F648        F  0.76327896  0.33378561  0.26603163    -0.16000
C649        C  0.82561260  0.28572800  0.82831777     0.14100
C650        C  0.81760896  0.32257302  0.83210042     0.01000
C651        C  0.78728055  0.33768613  0.81087086     0.16000
C652        C  0.76565415  0.31653157  0.78539933     0.25400
C653        C  0.77528166  0.27957859  0.77868468    -0.40900
C654        C  0.80468838  0.26447842  0.80240313     0.32400
C655        C  0.84150621  0.34554030  0.85750696     0.01100
F656        F  0.77853707  0.37329002  0.81474798    -0.13200
F657        F  0.81409154  0.22899509  0.79985530    -0.13800
C658        C  0.88071497  0.35076459  0.84908366     0.16000
C659        C  0.90296322  0.37450272  0.87115309     0.25400
C660        C  0.88633877  0.39355766  0.90211156    -0.40900
C661        C  0.84734489  0.38699045  0.91156755     0.32400
C662        C  0.82509940  0.36333762  0.88924817     0.14100
F663        F  0.89711294  0.33385644  0.81846392    -0.13200
F664        F  0.83024267  0.40429866  0.94153564    -0.13800
F665        F  0.94068691  0.37914867  0.86178040    -0.16000
F666        F  0.78737736  0.35808046  0.89832807    -0.14600
F667        F  0.85377977  0.27019936  0.84998969    -0.14600
F668        F  0.73418609  0.33246183  0.76953662    -0.16000
C669        C  0.66384893  0.64982500  0.61461927     0.14100
C670        C  0.65162048  0.66335469  0.65029097     0.01000
C671        C  0.61560303  0.65271509  0.66509518     0.16000
C672        C  0.59273540  0.62763576  0.64513963     0.25400
C673        C  0.60563274  0.61279301  0.60996929    -0.40900
C674        C  0.64116362  0.62489360  0.59457469     0.32400
C675        C  0.67757700  0.68678584  0.67310125     0.01100
F676        F  0.60327307  0.66562929  0.69961772    -0.13200
F677        F  0.65468545  0.61205028  0.56048418    -0.13800
C678        C  0.66911674  0.72334306  0.67849126     0.16000
C679        C  0.69333092  0.74505877  0.70096694     0.25400
C680        C  0.72505884  0.73004553  0.72162964    -0.40900
C681        C  0.73491347  0.69360693  0.71295704     0.32400
C682        C  0.71133634  0.67248914  0.68919389     0.14100
F683        F  0.63722381  0.73807336  0.66199376    -0.13200
F684        F  0.76768710  0.67798390  0.72631187    -0.13800
F685        F  0.68387604  0.78044055  0.70455137    -0.16000
F686        F  0.72131371  0.63761716  0.68221534    -0.14600
F687        F  0.69819774  0.66044445  0.59944519    -0.14600
F688        F  0.55846669  0.61739164  0.66073583    -0.16000
C689        C  0.31885238  0.37191024  0.62660989     0.14100
C690        C  0.33435860  0.34836643  0.65438601     0.01000
C691        C  0.37451597  0.34783389  0.66032341     0.16000
C692        C  0.39875337  0.37089754  0.63909712     0.25400
C693        C  0.38320253  0.39463736  0.61132062    -0.40900
C694        C  0.34295356  0.39471939  0.60521392     0.32400
C695        C  0.30860060  0.32450083  0.67726430     0.01100
F696        F  0.39014663  0.32542080  0.68723819    -0.13200
F697        F  0.32657129  0.41762541  0.57925237    -0.13800
C698        C  0.31215730  0.28691311  0.67488078     0.16000
C699        C  0.28920877  0.26433978  0.69778993     0.25400
C700        C  0.26245300  0.27872287  0.72486694    -0.40900
C701        C  0.25606913  0.31673009  0.72325163     0.32400
C702        C  0.27973959  0.33916550  0.70079746     0.14100
F703        F  0.33806471  0.27195164  0.65026508    -0.13200
F704        F  0.22596219  0.33273318  0.74133997    -0.13800
F705        F  0.29477853  0.22814958  0.69487569    -0.16000
F706        F  0.27447221  0.37552671  0.70220332    -0.14600
F707        F  0.28023227  0.37266061  0.62001583    -0.14600
F708        F  0.43738806  0.36972153  0.64545787    -0.16000
C709        C  0.66916522  0.32691806  0.28156385     0.14100
C710        C  0.66631847  0.32065469  0.32135984     0.01000
C711        C  0.68516238  0.29076099  0.33744618     0.16000
C712        C  0.70859273  0.26866252  0.31468867     0.25400
C713        C  0.71544289  0.27701399  0.27505058    -0.40900
C714        C  0.69254188  0.30497112  0.25857028     0.32400
C715        C  0.64439455  0.34570722  0.34633729     0.01100
F716        F  0.68040282  0.28261749  0.37543804    -0.13200
F717        F  0.69480095  0.31292378  0.22037329    -0.13800
C718        C  0.60454937  0.35048861  0.34120497     0.16000
C719        C  0.58423956  0.37496505  0.36426347     0.25400
C720        C  0.60348923  0.39514062  0.39289517    -0.40900
C721        C  0.64338107  0.38984150  0.39830994     0.32400
C722        C  0.66359448  0.36540284  0.37518013     0.14100
F723        F  0.58526264  0.33118283  0.31403554    -0.13200
F724        F  0.66323281  0.40919745  0.42503120    -0.13800
F725        F  0.54565764  0.37864709  0.35874160    -0.16000
F726        F  0.70226918  0.36174324  0.38013273    -0.14600
F727        F  0.65055722  0.35536407  0.26511746    -0.14600
F728        F  0.72290523  0.23850767  0.33182442    -0.16000
C729        C  0.37838697  0.64890299  0.34043887     0.14100
C730        C  0.34507567  0.66444565  0.35637999     0.01000
C731        C  0.33459266  0.65559610  0.39449812     0.16000
C732        C  0.35650408  0.63091139  0.41594464     0.25400
C733        C  0.38962040  0.61487924  0.39977335    -0.40900
C734        C  0.40055368  0.62458125  0.36190963     0.32400
C735        C  0.32066810  0.68866033  0.33248105     0.01100
F736        F  0.30307390  0.67088037  0.41100044    -0.13200
F737        F  0.43201403  0.60968389  0.34492123    -0.13800
C738        C  0.28151289  0.68089135  0.32692156     0.16000
C739        C  0.25900512  0.70244889  0.30262216     0.25400
C740        C  0.27550905  0.73113473  0.28067351    -0.40900
C741        C  0.31471175  0.74001833  0.28869460     0.32400
C742        C  0.33670243  0.71897009  0.31408715     0.14100
F743        F  0.26518283  0.65146551  0.34395305    -0.13200
F744        F  0.33205041  0.76987424  0.27383719    -0.13800
F745        F  0.22118657  0.69367089  0.29891000    -0.16000
F746        F  0.37384782  0.72864332  0.32124055    -0.14600
F747        F  0.38871195  0.65620765  0.30337687    -0.14600
F748        F  0.34501083  0.62258018  0.45240733    -0.16000
C749        C  0.61568147  0.65038423  0.34183048     0.14100
C750        C  0.64693445  0.66819558  0.35926504     0.01000
C751        C  0.65511441  0.66149354  0.39841384     0.16000
C752        C  0.63332949  0.63623896  0.41935458     0.25400
C753        C  0.60275975  0.61744510  0.40151667    -0.40900
C754        C  0.59367905  0.62544161  0.36272760     0.32400
C755        C  0.67214185  0.69195526  0.33569208     0.01100
F756        F  0.68441244  0.67924921  0.41627650    -0.13200
F757        F  0.56456463  0.60799974  0.34425092    -0.13800
C758        C  0.65664992  0.72118587  0.31513329     0.16000
C759        C  0.67959108  0.74147686  0.28984617     0.25400
C760        C  0.71902025  0.73232488  0.28341366    -0.40900
C761        C  0.73475637  0.70468650  0.30730622     0.32400
C762        C  0.71152416  0.68438185  0.33219430     0.14100
F763        F  0.61910782  0.73057568  0.32008268    -0.13200
F764        F  0.77262018  0.69580747  0.30526856    -0.13800
F765        F  0.66294102  0.77106564  0.27374585    -0.16000
F766        F  0.72740137  0.65625077  0.35184923    -0.14600
F767        F  0.60754523  0.65587194  0.30387847    -0.14600
F768        F  0.64239949  0.63005620  0.45696207    -0.16000
C769        C  0.62224284  0.35986812  0.66916589     0.14100
C770        C  0.65117686  0.34020757  0.65028149     0.01000
C771        C  0.65645635  0.34468085  0.61034533     0.16000
C772        C  0.63359390  0.36914997  0.58967182     0.25400
C773        C  0.60503896  0.38948395  0.60869902    -0.40900
C774        C  0.59928595  0.38421301  0.64860855     0.32400
C775        C  0.67677968  0.31632361  0.67289037     0.01100
F776        F  0.68384376  0.32539106  0.59144552    -0.13200
F777        F  0.57264748  0.40375582  0.66824752    -0.13800
C778        C  0.66152900  0.28699362  0.69347191     0.16000
C779        C  0.68495587  0.26632737  0.71783407     0.25400
C780        C  0.72459159  0.27533218  0.72326533    -0.40900
C781        C  0.74001160  0.30305378  0.69919433     0.32400
C782        C  0.71628415  0.32371038  0.67522083     0.14100
F783        F  0.62373365  0.27796524  0.68946579    -0.13200
F784        F  0.77801127  0.31180474  0.70057396    -0.13800
F785        F  0.66853280  0.23663276  0.73405127    -0.16000
F786        F  0.73173807  0.35200011  0.65540021    -0.14600
F787        F  0.61730679  0.35656093  0.70794200    -0.14600
F788        F  0.63947149  0.37293638  0.55108821    -0.16000
C789        C  0.37894550  0.64217412  0.67598921     0.14100
C790        C  0.34739019  0.66012740  0.65930224     0.01000
C791        C  0.33787380  0.65335303  0.62058130     0.16000
C792        C  0.35912201  0.62840635  0.59902418     0.25400
C793        C  0.39047769  0.60985286  0.61582184    -0.40900
C794        C  0.40030906  0.61727600  0.65453553     0.32400
C795        C  0.32304988  0.68431370  0.68293025     0.01100
F796        F  0.30711964  0.67002794  0.60402938    -0.13200
F797        F  0.42987806  0.59973667  0.67217876    -0.13800
C798        C  0.31992689  0.72113529  0.67405778     0.16000
C799        C  0.29594171  0.74356032  0.69590361     0.25400
C800        C  0.27270661  0.72944272  0.72632511    -0.40900
C801        C  0.27894268  0.69256786  0.73672717     0.32400
C802        C  0.30300327  0.67043903  0.71477006     0.14100
F803        F  0.34037810  0.73549798  0.64424848    -0.13200
F804        F  0.26384573  0.67759138  0.76918687    -0.13800
F805        F  0.29429599  0.77905853  0.68605638    -0.16000
F806        F  0.30667495  0.63503855  0.72470709    -0.14600
F807        F  0.38885701  0.64858239  0.71330531    -0.14600
F808        F  0.34862047  0.62220379  0.56183918    -0.16000
C809        C  0.30802800  0.29083469  0.33641842     0.14100
C810        C  0.32783409  0.32046571  0.32061953     0.01000
C811        C  0.32657616  0.32592874  0.28053003     0.16000
C812        C  0.30410795  0.30352643  0.25702428     0.25400
C813        C  0.27994989  0.27626693  0.27311616    -0.40900
C814        C  0.28516771  0.26854089  0.31312618     0.32400
C815        C  0.34969672  0.34565123  0.34593690     0.01100
F816        F  0.34578247  0.35410101  0.26411180    -0.13200
F817        F  0.26983646  0.23871983  0.33014781    -0.13800
C818        C  0.38875840  0.35330545  0.33864283     0.16000
C819        C  0.40881922  0.37821239  0.36144456     0.25400
C820        C  0.39043945  0.39559351  0.39259541    -0.40900
C821        C  0.35150448  0.38731448  0.40037904     0.32400
C822        C  0.33130673  0.36282446  0.37710904     0.14100
F823        F  0.40769134  0.33637497  0.30954425    -0.13200
F824        F  0.33245761  0.40371490  0.42974645    -0.13800
F825        F  0.44635378  0.38516214  0.35293154    -0.16000
F826        F  0.29332151  0.35675897  0.38431541    -0.14600
F827        F  0.31135052  0.28300175  0.37463635    -0.14600
F828        F  0.30383154  0.31053957  0.21855826    -0.16000
loop_ 
_geom_bond_atom_site_label_1 
_geom_bond_atom_site_label_2 
_geom_bond_distance 
_geom_bond_site_symmetry_2 
_ccdc_geom_bond_type 
N1            N2   1.318       .  A
N1            N7   1.316       .  A
N1          Mn30   2.194       .  S
N2            C9   1.352       .  A
N3            N5   1.315       .  A
N3            N4   1.320       .  A
N3          Mn19   2.196       .  S
N4           C10   1.354       .  A
N5            N6   1.318       .  A
N5          Mn30   2.197       .  S
N6           C10   1.353       .  A
N7            N8   1.321       .  A
N7          Mn19   2.211       .  S
N8            C9   1.356       .  A
C9          C820   1.485       .  S
C10         C733   1.483       .  S
N11          N17   1.316       .  A
N11          N12   1.320       .  A
N11         Mn41   2.201       .  S
N12          C20   1.354       .  A
N13          N14   1.317       .  A
N13          N15   1.317       .  A
N13         Mn19   2.194       .  S
N14          C21   1.351       .  A
N15          N16   1.323       .  A
N15         Mn41   2.219       .  S
N16          C21   1.357       .  A
N17          N18   1.319       .  A
N17         Mn19   2.204       .  S
N18          C20   1.354       .  A
Mn19        Cl43   2.544       .  S
C20         C793   1.484       .  S
C21         C693   1.483       .  S
N22          N23   1.318       .  A
N22          N28   1.315       .  A
N22         Mn30   2.196       .  S
N23          C31   1.353       .  A
N24          N26   1.315       .  A
N24          N25   1.320       .  A
N24         Mn42   2.202       .  S
N25          C32   1.355       .  A
N26          N27   1.319       .  A
N26         Mn30   2.200       .  S
N27          C32   1.353       .  A
N28          N29   1.321       .  A
N28         Mn42   2.200       .  S
N29          C31   1.355       .  A
Mn30        Cl43   2.544       .  S
C31         C753   1.482       .  S
C32         C720   1.483       .  S
N33          N34   1.319       .  A
N33          N39   1.316       .  A
N33         Mn41   2.201       .  S
N34          C44   1.353       .  A
N35          N36   1.316       .  A
N35          N37   1.316       .  A
N35         Mn42   2.191       .  S
N36          C45   1.351       .  A
N37          N38   1.324       .  A
N37         Mn41   2.218       .  S
N38          C45   1.358       .  A
N39          N40   1.319       .  A
N39         Mn42   2.198       .  S
N40          C44   1.353       .  A
Mn41        Cl43   2.552       .  S
Mn42        Cl43   2.544       .  S
C44         C773   1.478       .  S
C45         C673   1.488       .  S
N46          N47   1.319       .  A
N46          N52   1.316       .  A
N46         Mn75   2.204       .  S
N47          C54   1.354       .  A
N48          N50   1.317       .  A
N48          N49   1.320       .  A
N48         Mn64   2.199   1_556  S
N49          C55   1.354       .  A
N50          N51   1.319       .  A
N50         Mn75   2.206       .  S
N51          C55   1.355       .  A
N52          N53   1.319       .  A
N52         Mn64   2.195   1_556  S
N53          C54   1.353       .  A
C54         C660   1.481       .  S
C55         C593   1.484       .  S
N56          N62   1.316       .  A
N56          N57   1.322       .  A
N56         Mn86   2.206       .  S
N57          C65   1.356       .  A
N58          N59   1.319       .  A
N58          N60   1.315       .  A
N58         Mn64   2.200       .  S
N59          C66   1.355       .  A
N60          N61   1.318       .  A
N60         Mn86   2.195       .  S
N61          C66   1.353       .  A
N62          N63   1.317       .  A
N62         Mn64   2.197       .  S
N63          C65   1.353       .  A
Mn64        Cl88   2.543       .  S
C65         C553   1.486       .  S
C66         C640   1.482       .  S
N67          N68   1.322       .  A
N67          N73   1.316       .  A
N67         Mn75   2.213   1_455  S
N68          C76   1.357       .  A
N69          N71   1.316       .  A
N69          N70   1.320       .  A
N69         Mn87   2.202   1_556  S
N70          C77   1.354       .  A
N71          N72   1.321       .  A
N71         Mn75   2.211   1_455  S
N72          C77   1.356       .  A
N73          N74   1.319       .  A
N73         Mn87   2.202   1_556  S
N74          C76   1.353       .  A
Mn75        Cl88   2.547   1_556  S
C76         C580   1.487       .  S
C77         C613   1.487       .  S
N78          N79   1.317       .  A
N78          N84   1.316       .  A
N78         Mn86   2.195   1_455  S
N79          C89   1.352       .  A
N80          N81   1.319       .  A
N80          N82   1.316       .  A
N80         Mn87   2.203       .  S
N81          C90   1.354       .  A
N82          N83   1.318       .  A
N82         Mn86   2.200   1_455  S
N83          C90   1.354       .  A
N84          N85   1.320       .  A
N84         Mn87   2.201       .  S
N85          C89   1.355       .  A
Mn86        Cl88   2.548       .  S
Mn87        Cl88   2.544   1_455  S
C89         C520   1.481       .  S
C90         C533   1.484       .  S
C91         C480   1.565       .  S
C91         C500   1.563       .  S
C91         C653   1.565       .  S
C91         C780   1.562       .  S
N92          N93   1.320       .  A
N92          N98   1.316       .  A
N92        Mn121   2.206       .  S
N93         C100   1.356       .  A
N94          N96   1.316       .  A
N94          N95   1.316       .  A
N94        Mn110   2.192   1_565  S
N95         C101   1.352       .  A
N96          N97   1.320       .  A
N96        Mn121   2.204   1_565  S
N97         C101   1.355       .  A
N98          N99   1.317       .  A
N98        Mn110   2.189       .  S
N99         C100   1.351       .  A
C100        C493   1.483       .  S
C101        C393   1.481       .  S
N102        N108   1.316       .  A
N102        N103   1.322       .  A
N102       Mn132   2.211   1_565  S
N103        C111   1.357       .  A
N104        N105   1.319       .  A
N104        N106   1.315       .  A
N104       Mn110   2.196   1_554  S
N105        C112   1.354       .  A
N106        N107   1.320       .  A
N106       Mn132   2.207       .  S
N107        C112   1.356       .  A
N108        N109   1.317       .  A
N108       Mn110   2.193   1_564  S
N109        C111   1.352       .  A
Mn110      Cl134   2.539       .  S
C111        C440   1.484       .  S
C112        C340   1.485       .  S
N113        N114   1.318       .  A
N113        N119   1.317       .  A
N113       Mn121   2.199   1_565  S
N114        C122   1.353       .  A
N115        N117   1.317       .  A
N115        N116   1.319       .  A
N115       Mn133   2.203       .  S
N116        C123   1.353       .  A
N117        N118   1.320       .  A
N117       Mn121   2.206       .  S
N118        C123   1.355       .  A
N119        N120   1.321       .  A
N119       Mn133   2.214   1_565  S
N120        C122   1.357       .  A
Mn121      Cl134   2.552       .  S
C122        C453   1.486       .  S
C123        C420   1.483       .  S
N124        N125   1.320       .  A
N124        N130   1.317       .  A
N124       Mn132   2.202       .  S
N125        C135   1.354       .  A
N126        N127   1.320       .  A
N126        N128   1.317       .  A
N126       Mn133   2.205   1_564  S
N127        C136   1.354       .  A
N128        N129   1.319       .  A
N128       Mn132   2.205   1_565  S
N129        C136   1.354       .  A
N130        N131   1.319       .  A
N130       Mn133   2.203   1_554  S
N131        C135   1.354       .  A
Mn132      Cl134   2.550   1_554  S
Mn133      Cl134   2.544       .  S
C135        C360   1.480       .  S
C136        C373   1.484       .  S
C137        C313   1.568       .  S
C137        C460   1.568       .  S
C137        C573   1.567       .  S
C137        C800   1.566       .  S
N138        N139   1.319       .  A
N138        N144   1.315       .  A
N138       Mn167   2.206       .  S
N139        C146   1.354       .  A
N140        N142   1.315       .  A
N140        N141   1.319       .  A
N140       Mn156   2.203   1_565  S
N141        C147   1.354       .  A
N142        N143   1.322       .  A
N142       Mn167   2.203   1_565  S
N143        C147   1.356       .  A
N144        N145   1.321       .  A
N144       Mn156   2.201       .  S
N145        C146   1.355       .  A
C146        C473   1.484       .  S
C147        C240   1.488       .  S
N148        N154   1.316       .  A
N148        N149   1.320       .  A
N148       Mn178   2.204   1_565  S
N149        C157   1.355       .  A
N150        N151   1.320       .  A
N150        N152   1.316       .  A
N150       Mn156   2.201       .  S
N151        C158   1.355       .  A
N152        N153   1.318       .  A
N152       Mn178   2.197       .  S
N153        C158   1.353       .  A
N154        N155   1.317       .  A
N154       Mn156   2.188   1_565  S
N155        C157   1.351       .  A
Mn156      Cl180   2.545       .  S
C157        C273   1.476       .  S
C158        C300   1.483       .  S
N159        N160   1.320       .  A
N159        N165   1.317       .  A
N159       Mn167   2.201   1_465  S
N160        C168   1.353       .  A
N161        N163   1.316       .  A
N161        N162   1.320       .  A
N161       Mn179   2.197       .  S
N162        C169   1.354       .  A
N163        N164   1.316       .  A
N163       Mn167   2.191   1_455  S
N164        C169   1.351       .  A
N165        N166   1.322       .  A
N165       Mn179   2.217   1_565  S
N166        C168   1.356       .  A
Mn167      Cl180   2.545       .  S
C168        C320   1.488       .  S
C169        C200   1.473       .  S
N170        N171   1.320       .  A
N170        N176   1.316       .  A
N170       Mn178   2.202   1_455  S
N171        C181   1.354       .  A
N172        N173   1.319       .  A
N172        N174   1.316       .  A
N172       Mn179   2.198   1_565  S
N173        C182   1.353       .  A
N174        N175   1.320       .  A
N174       Mn178   2.206   1_465  S
N175        C182   1.355       .  A
N176        N177   1.323       .  A
N176       Mn179   2.222       .  S
N177        C181   1.358       .  A
Mn178      Cl180   2.547       .  S
Mn179      Cl180   2.548   1_455  S
C181        C220   1.493       .  S
C182        C260   1.482       .  S
C183        C280   1.563       .  S
C183        C433   1.565       .  S
C183        C560   1.563       .  S
C183        C760   1.564       .  S
C184        C213   1.568       .  S
C184        C353   1.566       .  S
C184        C513   1.565       .  S
C184        C813   1.567       .  S
C185        C293   1.565       .  S
C185        C333   1.565       .  S
C185        C633   1.564       .  S
C185        C713   1.566       .  S
C186        C253   1.564       .  S
C186        C380   1.565       .  S
C186        C540   1.566       .  S
C186        C740   1.563       .  S
C187        C193   1.562       .  S
C187        C413   1.567       .  S
C187        C620   1.568       .  S
C187        C700   1.567       .  S
C188        C233   1.567       .  S
C188        C400   1.564       .  S
C188        C600   1.566       .  S
C188        C680   1.565       .  S
C189        C190   1.396       .  A
C189        C194   1.395       .  A
C189        F207   1.359       .  S
C190        C195   1.469       .  S
C190        C191   1.395       .  A
C191        C192   1.397       .  A
C191        F196   1.358       .  S
C192        C193   1.425       .  A
C192        F208   1.357       .  S
C193        C194   1.424       .  A
C194        F197   1.355       .  S
C195        C198   1.400       .  A
C195        C202   1.403       .  A
C198        C199   1.393       .  A
C198        F203   1.358       .  S
C199        C200   1.408       .  A
C199        F205   1.358       .  S
C200        C201   1.408       .  A
C201        C202   1.399       .  A
C201        F204   1.358       .  S
C202        F206   1.358       .  S
C209        C210   1.397       .  A
C209        C214   1.400       .  A
C209        F227   1.358       .  S
C210        C215   1.481       .  S
C210        C211   1.399       .  A
C211        C212   1.401       .  A
C211        F216   1.358       .  S
C212        C213   1.425       .  A
C212        F228   1.356       .  S
C213        C214   1.425       .  A
C214        F217   1.356       .  S
C215        C218   1.402       .  A
C215        C222   1.403       .  A
C218        C219   1.403       .  A
C218        F223   1.358       .  S
C219        C220   1.414       .  A
C219        F225   1.358       .  S
C220        C221   1.411       .  A
C221        C222   1.401       .  A
C221        F224   1.357       .  S
C222        F226   1.358       .  S
C229        C230   1.398       .  A
C229        C234   1.399       .  A
C229        F247   1.358       .  S
C230        C235   1.481       .  S
C230        C231   1.400       .  A
C231        C232   1.399       .  A
C231        F236   1.358       .  S
C232        C233   1.425       .  A
C232        F248   1.356       .  S
C233        C234   1.423       .  A
C234        F237   1.355       .  S
C235        C238   1.402       .  A
C235        C242   1.405       .  A
C238        C239   1.398       .  A
C238        F243   1.358       .  S
C239        C240   1.412       .  A
C239        F245   1.357       .  S
C240        C241   1.411       .  A
C241        C242   1.402       .  A
C241        F244   1.358       .  S
C242        F246   1.358       .  S
C249        C250   1.399       .  A
C249        C254   1.396       .  A
C249        F267   1.358       .  S
C250        C255   1.480       .  S
C250        C251   1.400       .  A
C251        C252   1.399       .  A
C251        F256   1.358       .  S
C252        C253   1.424       .  A
C252        F268   1.356       .  S
C253        C254   1.423       .  A
C254        F257   1.355       .  S
C255        C258   1.405       .  A
C255        C262   1.404       .  A
C258        C259   1.398       .  A
C258        F263   1.358       .  S
C259        C260   1.409       .  A
C259        F265   1.358       .  S
C260        C261   1.410       .  A
C261        C262   1.399       .  A
C261        F264   1.358       .  S
C262        F266   1.358       .  S
C269        C270   1.402       .  A
C269        C274   1.397       .  A
C269        F287   1.358       .  S
C270        C275   1.474       .  S
C270        C271   1.404       .  A
C271        C272   1.395       .  A
C271        F276   1.358       .  S
C272        C273   1.407       .  A
C272        F288   1.358       .  S
C273        C274   1.410       .  A
C274        F277   1.358       .  S
C275        C278   1.399       .  A
C275        C282   1.396       .  A
C278        C279   1.397       .  A
C278        F283   1.358       .  S
C279        C280   1.422       .  A
C279        F285   1.356       .  S
C280        C281   1.427       .  A
C281        C282   1.394       .  A
C281        F284   1.356       .  S
C282        F286   1.358       .  S
C289        C290   1.399       .  A
C289        C294   1.397       .  A
C289        F307   1.358       .  S
C290        C295   1.477       .  S
C290        C291   1.397       .  A
C291        C292   1.398       .  A
C291        F296   1.358       .  S
C292        C293   1.424       .  A
C292        F308   1.356       .  S
C293        C294   1.425       .  A
C294        F297   1.356       .  S
C295        C298   1.402       .  A
C295        C302   1.403       .  A
C298        C299   1.397       .  A
C298        F303   1.358       .  S
C299        C300   1.411       .  A
C299        F305   1.358       .  S
C300        C301   1.410       .  A
C301        C302   1.399       .  A
C301        F304   1.358       .  S
C302        F306   1.358       .  S
C309        C310   1.401       .  A
C309        C314   1.401       .  A
C309        F327   1.358       .  S
C310        C315   1.487       .  S
C310        C311   1.401       .  A
C311        C312   1.399       .  A
C311        F316   1.358       .  S
C312        C313   1.422       .  A
C312        F328   1.356       .  S
C313        C314   1.426       .  A
C314        F317   1.356       .  S
C315        C318   1.405       .  A
C315        C322   1.406       .  A
C318        C319   1.401       .  A
C318        F323   1.358       .  S
C319        C320   1.411       .  A
C319        F325   1.358       .  S
C320        C321   1.410       .  A
C321        C322   1.400       .  A
C321        F324   1.357       .  S
C322        F326   1.358       .  S
C329        C330   1.401       .  A
C329        C334   1.397       .  A
C329        F347   1.358       .  S
C330        C335   1.485       .  S
C330        C331   1.401       .  A
C331        C332   1.400       .  A
C331        F336   1.358       .  S
C332        C333   1.426       .  A
C332        F348   1.356       .  S
C333        C334   1.421       .  A
C334        F337   1.356       .  S
C335        C338   1.406       .  A
C335        C342   1.405       .  A
C338        C339   1.400       .  A
C338        F343   1.358       .  S
C339        C340   1.409       .  A
C339        F345   1.358       .  S
C340        C341   1.411       .  A
C341        C342   1.399       .  A
C341        F344   1.358       .  S
C342        F346   1.358       .  S
C349        C350   1.398       .  A
C349        C354   1.399       .  A
C349        F367   1.358       .  S
C350        C355   1.478       .  S
C350        C351   1.398       .  A
C351        C352   1.399       .  A
C351        F356   1.358       .  S
C352        C353   1.422       .  A
C352        F368   1.356       .  S
C353        C354   1.427       .  A
C354        F357   1.356       .  S
C355        C358   1.404       .  A
C355        C362   1.403       .  A
C358        C359   1.402       .  A
C358        F363   1.358       .  S
C359        C360   1.409       .  A
C359        F365   1.358       .  S
C360        C361   1.408       .  A
C361        C362   1.397       .  A
C361        F364   1.358       .  S
C362        F366   1.358       .  S
C369        C370   1.405       .  A
C369        C374   1.400       .  A
C369        F387   1.358       .  S
C370        C375   1.482       .  S
C370        C371   1.404       .  A
C371        C372   1.398       .  A
C371        F376   1.358       .  S
C372        C373   1.409       .  A
C372        F388   1.358       .  S
C373        C374   1.410       .  A
C374        F377   1.358       .  S
C375        C378   1.399       .  A
C375        C382   1.400       .  A
C378        C379   1.398       .  A
C378        F383   1.358       .  S
C379        C380   1.422       .  A
C379        F385   1.355       .  S
C380        C381   1.426       .  A
C381        C382   1.397       .  A
C381        F384   1.356       .  S
C382        F386   1.358       .  S
C389        C390   1.402       .  A
C389        C394   1.396       .  A
C389        F407   1.358       .  S
C390        C395   1.476       .  S
C390        C391   1.404       .  A
C391        C392   1.398       .  A
C391        F396   1.358       .  S
C392        C393   1.409       .  A
C392        F408   1.358       .  S
C393        C394   1.411       .  A
C394        F397   1.358       .  S
C395        C398   1.397       .  A
C395        C402   1.399       .  A
C398        C399   1.397       .  A
C398        F403   1.358       .  S
C399        C400   1.427       .  A
C399        F405   1.356       .  S
C400        C401   1.422       .  A
C401        C402   1.396       .  A
C401        F404   1.355       .  S
C402        F406   1.358       .  S
C409        C410   1.401       .  A
C409        C414   1.399       .  A
C409        F427   1.358       .  S
C410        C415   1.484       .  S
C410        C411   1.399       .  A
C411        C412   1.397       .  A
C411        F416   1.358       .  S
C412        C413   1.427       .  A
C412        F428   1.355       .  S
C413        C414   1.422       .  A
C414        F417   1.357       .  S
C415        C418   1.406       .  A
C415        C422   1.405       .  A
C418        C419   1.399       .  A
C418        F423   1.358       .  S
C419        C420   1.409       .  A
C419        F425   1.358       .  S
C420        C421   1.409       .  A
C421        C422   1.400       .  A
C421        F424   1.358       .  S
C422        F426   1.358       .  S
C429        C430   1.402       .  A
C429        C434   1.399       .  A
C429        F447   1.358       .  S
C430        C435   1.483       .  S
C430        C431   1.399       .  A
C431        C432   1.398       .  A
C431        F436   1.358       .  S
C432        C433   1.423       .  A
C432        F448   1.356       .  S
C433        C434   1.424       .  A
C434        F437   1.355       .  S
C435        C438   1.403       .  A
C435        C442   1.407       .  A
C438        C439   1.397       .  A
C438        F443   1.358       .  S
C439        C440   1.411       .  A
C439        F445   1.358       .  S
C440        C441   1.408       .  A
C441        C442   1.402       .  A
C441        F444   1.358       .  S
C442        F446   1.358       .  S
C449        C450   1.405       .  A
C449        C454   1.400       .  A
C449        F467   1.358       .  S
C450        C455   1.484       .  S
C450        C451   1.404       .  A
C451        C452   1.400       .  A
C451        F456   1.358       .  S
C452        C453   1.412       .  A
C452        F468   1.358       .  S
C453        C454   1.409       .  A
C454        F457   1.357       .  S
C455        C458   1.400       .  A
C455        C462   1.399       .  A
C458        C459   1.399       .  A
C458        F463   1.358       .  S
C459        C460   1.426       .  A
C459        F465   1.355       .  S
C460        C461   1.423       .  A
C461        C462   1.399       .  A
C461        F464   1.356       .  S
C462        F466   1.358       .  S
C469        C470   1.402       .  A
C469        C474   1.396       .  A
C469        F487   1.358       .  S
C470        C475   1.480       .  S
C470        C471   1.405       .  A
C471        C472   1.403       .  A
C471        F476   1.358       .  S
C472        C473   1.410       .  A
C472        F488   1.358       .  S
C473        C474   1.409       .  A
C474        F477   1.357       .  S
C475        C478   1.400       .  A
C475        C482   1.397       .  A
C478        C479   1.400       .  A
C478        F483   1.358       .  S
C479        C480   1.425       .  A
C479        F485   1.356       .  S
C480        C481   1.423       .  A
C481        C482   1.397       .  A
C481        F484   1.356       .  S
C482        F486   1.358       .  S
C489        C490   1.402       .  A
C489        C494   1.399       .  A
C489        F507   1.358       .  S
C490        C495   1.475       .  S
C490        C491   1.402       .  A
C491        C492   1.397       .  A
C491        F496   1.358       .  S
C492        C493   1.409       .  A
C492        F508   1.357       .  S
C493        C494   1.413       .  A
C494        F497   1.358       .  S
C495        C498   1.398       .  A
C495        C502   1.397       .  A
C498        C499   1.398       .  A
C498        F503   1.358       .  S
C499        C500   1.426       .  A
C499        F505   1.356       .  S
C500        C501   1.423       .  A
C501        C502   1.396       .  A
C501        F504   1.356       .  S
C502        F506   1.358       .  S
C509        C510   1.397       .  A
C509        C514   1.396       .  A
C509        F527   1.358       .  S
C510        C515   1.478       .  S
C510        C511   1.400       .  A
C511        C512   1.397       .  A
C511        F516   1.358       .  S
C512        C513   1.425       .  A
C512        F528   1.355       .  S
C513        C514   1.424       .  A
C514        F517   1.355       .  S
C515        C518   1.403       .  A
C515        C522   1.405       .  A
C518        C519   1.396       .  A
C518        F523   1.358       .  S
C519        C520   1.410       .  A
C519        F525   1.358       .  S
C520        C521   1.409       .  A
C521        C522   1.399       .  A
C521        F524   1.358       .  S
C522        F526   1.358       .  S
C529        C530   1.403       .  A
C529        C534   1.399       .  A
C529        F547   1.358       .  S
C530        C535   1.477       .  S
C530        C531   1.402       .  A
C531        C532   1.398       .  A
C531        F536   1.358       .  S
C532        C533   1.410       .  A
C532        F548   1.358       .  S
C533        C534   1.412       .  A
C534        F537   1.358       .  S
C535        C538   1.397       .  A
C535        C542   1.398       .  A
C538        C539   1.397       .  A
C538        F543   1.358       .  S
C539        C540   1.423       .  A
C539        F545   1.355       .  S
C540        C541   1.427       .  A
C541        C542   1.399       .  A
C541        F544   1.356       .  S
C542        F546   1.358       .  S
C549        C550   1.400       .  A
C549        C554   1.396       .  A
C549        F567   1.358       .  S
C550        C555   1.477       .  S
C550        C551   1.404       .  A
C551        C552   1.402       .  A
C551        F556   1.358       .  S
C552        C553   1.411       .  A
C552        F568   1.358       .  S
C553        C554   1.412       .  A
C554        F557   1.357       .  S
C555        C558   1.400       .  A
C555        C562   1.397       .  A
C558        C559   1.398       .  A
C558        F563   1.358       .  S
C559        C560   1.423       .  A
C559        F565   1.356       .  S
C560        C561   1.423       .  A
C561        C562   1.398       .  A
C561        F564   1.356       .  S
C562        F566   1.358       .  S
C569        C570   1.401       .  A
C569        C574   1.402       .  A
C569        F587   1.358       .  S
C570        C575   1.485       .  S
C570        C571   1.399       .  A
C571        C572   1.397       .  A
C571        F576   1.358       .  S
C572        C573   1.422       .  A
C572        F588   1.356       .  S
C573        C574   1.425       .  A
C574        F577   1.356       .  S
C575        C578   1.406       .  A
C575        C582   1.404       .  A
C578        C579   1.402       .  A
C578        F583   1.358       .  S
C579        C580   1.409       .  A
C579        F585   1.358       .  S
C580        C581   1.411       .  A
C581        C582   1.400       .  A
C581        F584   1.358       .  S
C582        F586   1.358       .  S
C589        C590   1.405       .  A
C589        C594   1.401       .  A
C589        F607   1.358       .  S
C590        C595   1.481       .  S
C590        C591   1.403       .  A
C591        C592   1.397       .  A
C591        F596   1.358       .  S
C592        C593   1.409       .  A
C592        F608   1.357       .  S
C593        C594   1.411       .  A
C594        F597   1.358       .  S
C595        C598   1.399       .  A
C595        C602   1.398       .  A
C598        C599   1.399       .  A
C598        F603   1.358       .  S
C599        C600   1.426       .  A
C599        F605   1.355       .  S
C600        C601   1.423       .  A
C601        C602   1.397       .  A
C601        F604   1.354       .  S
C602        F606   1.358       .  S
C609        C610   1.405       .  A
C609        C614   1.401       .  A
C609        F627   1.358       .  S
C610        C615   1.487       .  S
C610        C611   1.406       .  A
C611        C612   1.400       .  A
C611        F616   1.358       .  S
C612        C613   1.409       .  A
C612        F628   1.358       .  S
C613        C614   1.411       .  A
C614        F617   1.358       .  S
C615        C618   1.400       .  A
C615        C622   1.402       .  A
C618        C619   1.400       .  A
C618        F623   1.358       .  S
C619        C620   1.427       .  A
C619        F625   1.356       .  S
C620        C621   1.420       .  A
C621        C622   1.400       .  A
C621        F624   1.357       .  S
C622        F626   1.358       .  S
C629        C630   1.397       .  A
C629        C634   1.397       .  A
C629        F647   1.358       .  S
C630        C635   1.476       .  S
C630        C631   1.399       .  A
C631        C632   1.397       .  A
C631        F636   1.358       .  S
C632        C633   1.425       .  A
C632        F648   1.355       .  S
C633        C634   1.424       .  A
C634        F637   1.355       .  S
C635        C638   1.403       .  A
C635        C642   1.403       .  A
C638        C639   1.398       .  A
C638        F643   1.358       .  S
C639        C640   1.409       .  A
C639        F645   1.358       .  S
C640        C641   1.411       .  A
C641        C642   1.398       .  A
C641        F644   1.358       .  S
C642        F646   1.358       .  S
C649        C650   1.397       .  A
C649        C654   1.397       .  A
C649        F667   1.358       .  S
C650        C655   1.477       .  S
C650        C651   1.399       .  A
C651        C652   1.398       .  A
C651        F656   1.359       .  S
C652        C653   1.427       .  A
C652        F668   1.356       .  S
C653        C654   1.422       .  A
C654        F657   1.356       .  S
C655        C658   1.403       .  A
C655        C662   1.404       .  A
C658        C659   1.397       .  A
C658        F663   1.358       .  S
C659        C660   1.409       .  A
C659        F665   1.358       .  S
C660        C661   1.411       .  A
C661        C662   1.399       .  A
C661        F664   1.358       .  S
C662        F666   1.358       .  S
C669        C670   1.400       .  A
C669        C674   1.397       .  A
C669        F687   1.358       .  S
C670        C675   1.478       .  S
C670        C671   1.404       .  A
C671        C672   1.402       .  A
C671        F676   1.358       .  S
C672        C673   1.410       .  A
C672        F688   1.357       .  S
C673        C674   1.413       .  A
C674        F677   1.358       .  S
C675        C678   1.397       .  A
C675        C682   1.399       .  A
C678        C679   1.398       .  A
C678        F683   1.358       .  S
C679        C680   1.424       .  A
C679        F685   1.355       .  S
C680        C681   1.424       .  A
C681        C682   1.398       .  A
C681        F684   1.356       .  S
C682        F686   1.358       .  S
C689        C690   1.402       .  A
C689        C694   1.397       .  A
C689        F707   1.358       .  S
C690        C695   1.482       .  S
C690        C691   1.407       .  A
C691        C692   1.402       .  A
C691        F696   1.358       .  S
C692        C693   1.407       .  A
C692        F708   1.358       .  S
C693        C694   1.411       .  A
C694        F697   1.358       .  S
C695        C698   1.398       .  A
C695        C702   1.401       .  A
C698        C699   1.397       .  A
C698        F703   1.358       .  S
C699        C700   1.424       .  A
C699        F705   1.356       .  S
C700        C701   1.424       .  A
C701        C702   1.399       .  A
C701        F704   1.355       .  S
C702        F706   1.358       .  S
C709        C710   1.400       .  A
C709        C714   1.399       .  A
C709        F727   1.358       .  S
C710        C715   1.480       .  S
C710        C711   1.399       .  A
C711        C712   1.398       .  A
C711        F716   1.358       .  S
C712        C713   1.425       .  A
C712        F728   1.356       .  S
C713        C714   1.422       .  A
C714        F717   1.356       .  S
C715        C718   1.404       .  A
C715        C722   1.405       .  A
C718        C719   1.400       .  A
C718        F723   1.358       .  S
C719        C720   1.410       .  A
C719        F725   1.358       .  S
C720        C721   1.409       .  A
C721        C722   1.399       .  A
C721        F724   1.358       .  S
C722        F726   1.358       .  S
C729        C730   1.405       .  A
C729        C734   1.396       .  A
C729        F747   1.358       .  S
C730        C735   1.483       .  S
C730        C731   1.406       .  A
C731        C732   1.399       .  A
C731        F736   1.358       .  S
C732        C733   1.410       .  A
C732        F748   1.358       .  S
C733        C734   1.409       .  A
C734        F737   1.358       .  S
C735        C738   1.400       .  A
C735        C742   1.401       .  A
C738        C739   1.396       .  A
C738        F743   1.358       .  S
C739        C740   1.422       .  A
C739        F745   1.356       .  S
C740        C741   1.425       .  A
C741        C742   1.399       .  A
C741        F744   1.356       .  S
C742        F746   1.358       .  S
C749        C750   1.404       .  A
C749        C754   1.396       .  A
C749        F767   1.358       .  S
C750        C755   1.481       .  S
C750        C751   1.406       .  A
C751        C752   1.400       .  A
C751        F756   1.358       .  S
C752        C753   1.409       .  A
C752        F768   1.358       .  S
C753        C754   1.409       .  A
C754        F757   1.358       .  S
C755        C758   1.400       .  A
C755        C762   1.399       .  A
C758        C759   1.398       .  A
C758        F763   1.358       .  S
C759        C760   1.426       .  A
C759        F765   1.356       .  S
C760        C761   1.422       .  A
C761        C762   1.396       .  A
C761        F764   1.355       .  S
C762        F766   1.358       .  S
C769        C770   1.403       .  A
C769        C774   1.395       .  A
C769        F787   1.358       .  S
C770        C775   1.476       .  S
C770        C771   1.404       .  A
C771        C772   1.399       .  A
C771        F776   1.358       .  S
C772        C773   1.409       .  A
C772        F788   1.358       .  S
C773        C774   1.409       .  A
C774        F777   1.358       .  S
C775        C778   1.398       .  A
C775        C782   1.398       .  A
C778        C779   1.397       .  A
C778        F783   1.358       .  S
C779        C780   1.425       .  A
C779        F785   1.356       .  S
C780        C781   1.422       .  A
C781        C782   1.395       .  A
C781        F784   1.356       .  S
C782        F786   1.358       .  S
C789        C790   1.404       .  A
C789        C794   1.398       .  A
C789        F807   1.358       .  S
C790        C795   1.480       .  S
C790        C791   1.404       .  A
C791        C792   1.399       .  A
C791        F796   1.358       .  S
C792        C793   1.410       .  A
C792        F808   1.358       .  S
C793        C794   1.410       .  A
C794        F797   1.358       .  S
C795        C798   1.399       .  A
C795        C802   1.398       .  A
C798        C799   1.399       .  A
C798        F803   1.358       .  S
C799        C800   1.423       .  A
C799        F805   1.356       .  S
C800        C801   1.426       .  A
C801        C802   1.396       .  A
C801        F804   1.356       .  S
C802        F806   1.358       .  S
C809        C810   1.401       .  A
C809        C814   1.400       .  A
C809        F827   1.358       .  S
C810        C815   1.487       .  S
C810        C811   1.402       .  A
C811        C812   1.399       .  A
C811        F816   1.358       .  S
C812        C813   1.421       .  A
C812        F828   1.356       .  S
C813        C814   1.425       .  A
C814        F817   1.356       .  S
C815        C818   1.405       .  A
C815        C822   1.407       .  A
C818        C819   1.399       .  A
C818        F823   1.358       .  S
C819        C820   1.410       .  A
C819        F825   1.358       .  S
C820        C821   1.409       .  A
C821        C822   1.400       .  A
C821        F824   1.358       .  S
C822        F826   1.358       .  S
