geometry optimzed in LAMMPS
_audit_creation_date              2020-11-30 
_audit_creation_method            'lammps2cif' 
_symmetry_space_group_name_H-M    'P1' 
_symmetry_Int_Tables_number       1 
_symmetry_cell_setting            triclinic 
loop_ 
_symmetry_equiv_pos_as_xyz 
  x,y,z 
_cell_length_a                    33.0391975 
_cell_length_b                    33.02318494190471 
_cell_length_c                    78.9508095671102 
_cell_angle_alpha                 89.79292689076408 
_cell_angle_beta                  90.04500352374043 
_cell_angle_gamma                 120.31503110981521 
loop_ 
_atom_site_label 
_atom_site_type_symbol 
_atom_site_fract_x 
_atom_site_fract_y 
_atom_site_fract_z 
_atom_site_charge 
C1          C  0.09397921  0.50601387  0.53607279     0.80100
N2          N  0.07263176  0.48718937  0.52093406    -0.78200
C3          C  0.08849377  0.46438012  0.51107303     0.82500
N4          N  0.12531395  0.46067496  0.51630836    -0.78200
C5          C  0.14747672  0.47953481  0.53099380     0.82600
N6          N  0.13124353  0.50173691  0.54100756    -0.79900
C7          C  0.91310966  0.54922623  0.44103261     0.80100
N8          N  0.93086750  0.56361837  0.45693257    -0.78200
C9          C  0.91317571  0.58413944  0.46707571     0.82500
N10         N  0.87842970  0.59058427  0.46123098    -0.78200
C11         C  0.86078616  0.57765671  0.44547240     0.82600
N12         N  0.87826248  0.55666230  0.43535578    -0.79900
Fe13       Fe  0.95148919  0.64198109  0.57260719     1.65800
Fe14       Fe  0.06124379  0.70996100  0.58848499     1.73200
Fe15       Fe  0.02254705  0.75019145  0.55586619     1.54400
O16         O  0.99846183  0.70395040  0.53563849    -0.81800
O17         O  0.07850874  0.77825650  0.59444596    -0.80100
O18         O  0.94128990  0.63873215  0.54690913    -0.84300
O19         O  0.91639362  0.67753069  0.57655600    -0.79200
O20         O  0.08994022  0.76490505  0.54961261    -0.81000
O21         O  0.01607546  0.68778189  0.60899861    -0.83700
C22         C  0.92278080  0.71662980  0.57122956     0.97000
C23         C  0.96461483  0.66229246  0.53422352     1.04500
O24         O  0.01217891  0.70115107  0.57232853    -1.12700
O25         O  0.05143924  0.64322683  0.58308112    -0.75100
O26         O  0.98463017  0.60466763  0.56863833    -0.78600
O27         O  0.95693318  0.74323332  0.56142683    -0.79300
C28         C  0.02347512  0.60954924  0.57343368     0.96000
O29         O  0.94897207  0.63285442  0.59833699    -0.77300
O30         O  0.11320157  0.73589234  0.57060550    -0.82500
C31         C  0.07315731  0.80987371  0.58725829     0.98600
C32         C  0.12079676  0.75864138  0.55689395     1.04500
O33         O  0.05038284  0.80270372  0.57358066    -0.78100
C34         C  0.97370073  0.65583121  0.61080233     1.02800
C35         C  0.25447101  0.22915685  0.10746257     0.80100
N36         N  0.26875501  0.24064153  0.12389121    -0.78200
C37         C  0.25119262  0.26208014  0.13364313     0.82500
N38         N  0.22034577  0.27295590  0.12691532    -0.78200
C39         C  0.20664622  0.26304963  0.11059832     0.82600
N40         N  0.22340724  0.24078277  0.10084875    -0.79900
C41         C  0.43700672  0.18724501  0.20154219     0.80100
N42         N  0.47221096  0.17988099  0.20681251    -0.78200
C43         C  0.48891370  0.15872544  0.19640443     0.82500
N44         N  0.47035909  0.14574848  0.18072343    -0.78200
C45         C  0.43537475  0.15240182  0.17534265     0.82600
N46         N  0.41798749  0.17257074  0.18582833    -0.79900
Fe47       Fe  0.39339942  0.08444817  0.07205349     1.65800
Fe48       Fe  0.32509378  0.97585264  0.08836866     1.73200
Fe49       Fe  0.28187366  0.01821990  0.05829752     1.54400
O50         O  0.29486319  0.08619496  0.06343280    -0.81800
O51         O  0.30177475  0.92698381  0.06959539    -0.80100
O52         O  0.36171037  0.12257520  0.07793171    -0.84300
O53         O  0.39185678  0.09499129  0.04626916    -0.79200
O54         O  0.23410435  0.99552882  0.07754338    -0.81000
O55         O  0.39277440  0.98700675  0.08356225    -0.83700
C56         C  0.36519453  0.07007418  0.03439877     0.97000
C57         C  0.32337795  0.11920729  0.07318605     1.04500
O58         O  0.33299299  0.02585613  0.07288155    -1.12700
O59         O  0.34550685  0.02090479  0.10867729    -0.75100
O60         O  0.40616720  0.08420949  0.09777949    -0.78600
O61         O  0.32337250  0.03793918  0.03705438    -0.79300
C62         C  0.38022398  0.06197524  0.11031431     0.96000
O63         O  0.42595505  0.04774083  0.06577619    -0.77300
O64         O  0.25570729  0.95499778  0.09413231    -0.82500
C65         C  0.27296003  0.91913868  0.05771587     0.98600
C66         C  0.22541303  0.96514638  0.08891427     1.04500
O67         O  0.26204594  0.94905088  0.05255964    -0.78100
C68         C  0.42178292  0.01018657  0.07175374     1.02800
Fe69       Fe  0.28987176  0.31651348  0.23979745     1.65800
Fe70       Fe  0.35528628  0.42515787  0.22280441     1.73200
Fe71       Fe  0.39969267  0.38883507  0.25466407     1.54400
O72         O  0.35616122  0.36494156  0.27569476    -0.81800
O73         O  0.42370124  0.44465672  0.21616408    -0.80100
O74         O  0.29081077  0.30564294  0.26551051    -0.84300
O75         O  0.32578627  0.28192679  0.23448021    -0.79200
O76         O  0.41379672  0.45610690  0.26071545    -0.81000
O77         O  0.33282000  0.37899400  0.20275718    -0.83700
C78         C  0.36570866  0.28913260  0.23927491     0.97000
C79         C  0.31569679  0.32966155  0.27783294     1.04500
O80         O  0.34879274  0.37721001  0.23907743    -1.12700
O81         O  0.28841818  0.41389926  0.22865878    -0.75100
O82         O  0.25382731  0.35077306  0.24535672    -0.78600
O83         O  0.39261724  0.32334200  0.24895564    -0.79300
C84         C  0.25772352  0.38878659  0.23978642     0.96000
O85         O  0.27597008  0.31384067  0.21414161    -0.77300
O86         O  0.38062509  0.47711930  0.24047621    -0.82500
C87         C  0.45632983  0.44010822  0.22280386     0.98600
C88         C  0.40533276  0.48587816  0.25368631     1.04500
O89         O  0.45038717  0.41667174  0.23625038    -0.78100
C90         C  0.29894606  0.33740574  0.20135129     1.02800
C91         C  0.20078297  0.27411364  0.37095284     0.80100
N92         N  0.21587318  0.29048241  0.35487841    -0.78200
C93         C  0.24072209  0.27517414  0.34586919     0.82500
N94         N  0.25018673  0.24356565  0.35296510    -0.78200
C95         C  0.23551467  0.22694497  0.36879499     0.82600
N96         N  0.21058850  0.24200961  0.37781614    -0.79900
C97         C  0.16086156  0.46823483  0.27678167     0.80100
N98         N  0.14210887  0.44829601  0.29211166    -0.78200
C99         C  0.11923346  0.46477452  0.30159818     0.82500
N100        N  0.11511586  0.50094722  0.29574147    -0.78200
C101        C  0.13397952  0.52198403  0.28079079     0.82600
N102        N  0.15641868  0.50502727  0.27117319    -0.79900
Fe103      Fe  0.05713040  0.41132985  0.40601464     1.65800
Fe104      Fe  0.94722582  0.34290808  0.38959721     1.73200
Fe105      Fe  0.98606059  0.30043289  0.42136807     1.54400
O106        O  0.04782466  0.30351274  0.41351549    -0.81800
O107        O  0.89490818  0.30936477  0.40698719    -0.80100
O108        O  0.09409022  0.37614096  0.40334323    -0.84300
O109        O  0.06148533  0.41512233  0.43205269    -0.79200
O110        O  0.95185729  0.24909753  0.40385667    -0.81000
O111        O  0.95224791  0.40546305  0.39751533    -0.83700
C112        C  0.04253114  0.38657415  0.44417388     0.97000
C113        C  0.08456061  0.33407493  0.40579521     1.04500
O114        O  0.99676120  0.35144067  0.40560416    -1.12700
O115        O  0.99195690  0.37409350  0.36941185    -0.75100
O116        O  0.06287866  0.41894383  0.38014912    -0.78600
O117        O  0.01591339  0.34319840  0.44183247    -0.79300
C118        C  0.03542754  0.40236480  0.36766327     0.96000
O119        O  0.02363685  0.44969477  0.40842094    -0.77300
O120        O  0.93529672  0.27801375  0.38106994    -0.82500
C121        C  0.88970959  0.29227682  0.42172180     0.98600
C122        C  0.93410024  0.24414648  0.38930298     1.04500
O123        O  0.92245857  0.29121816  0.42981205    -0.78100
C124        C  0.98253567  0.44200776  0.40538403     1.02800
C125        C  0.53573331  0.94904948  0.03648190     0.80100
N126        N  0.54190426  0.91380777  0.04257303    -0.78200
C127        C  0.56510221  0.89737223  0.03318373     0.82500
N128        N  0.58262267  0.91714012  0.01795352    -0.78200
C129        C  0.57680834  0.95178464  0.01161062     0.82600
N130        N  0.55264101  0.96752260  0.02077849    -0.79900
C131        C  0.48007186  0.12256252  0.94200386     0.80100
N132        N  0.46052960  0.10128242  0.95707233    -0.78200
C133        C  0.43545707  0.11570393  0.96631271     0.82500
N134        N  0.43074303  0.15174755  0.96070457    -0.78200
C135        C  0.45070961  0.17418805  0.94606270     0.82600
N136        N  0.47487979  0.15898377  0.93659928    -0.79900
Fe137      Fe  0.62602188  0.98606537  0.90550202     1.65800
Fe138      Fe  0.69388935  0.10035306  0.89327466     1.73200
Fe139      Fe  0.73754607  0.05170397  0.92045349     1.54400
O140        O  0.69476902  0.02729360  0.94142705    -0.81800
O141        O  0.76280100  0.12252319  0.88729439    -0.80100
O142        O  0.62383595  0.97598045  0.93154072    -0.84300
O143        O  0.65864434  0.94783604  0.90069762    -0.79200
O144        O  0.75859762  0.11957777  0.92771803    -0.81000
O145        O  0.67361461  0.06192916  0.87126482    -0.83700
C146        C  0.69745854  0.95194206  0.90514537     0.97000
C147        C  0.65182159  0.99713834  0.94370830     1.04500
O148        O  0.68588687  0.04603283  0.90638605    -1.12700
O149        O  0.62718044  0.08837461  0.89842152    -0.75100
O150        O  0.58742993  0.01822062  0.91039926    -0.78600
O151        O  0.72645792  0.98584632  0.91425126    -0.79300
C152        C  0.59228384  0.05791004  0.90687552     0.96000
O153        O  0.62130829  0.98908357  0.87934224    -0.77300
O154        O  0.71687315  0.14458430  0.91375081    -0.82500
C155        C  0.79387125  0.11225322  0.89117111     0.98600
C156        C  0.74920229  0.15140790  0.92402953     1.04500
O157        O  0.78572921  0.07859987  0.90106177    -0.78100
C158        C  0.64447302  0.01934751  0.86793818     1.02800
C159        C  0.86063885  0.61255764  0.70398728     0.80100
N160        N  0.86762242  0.57771080  0.70994137    -0.78200
C161        C  0.88935161  0.56031933  0.70020922     0.82500
N162        N  0.90362426  0.57794374  0.68445478    -0.78200
C163        C  0.89741472  0.61264479  0.67836468     0.82600
N164        N  0.87606797  0.63025173  0.68812060    -0.79900
C165        C  0.81716954  0.78693577  0.60724313     0.80100
N166        N  0.79832350  0.76697892  0.62261742    -0.78200
C167        C  0.77390678  0.78266525  0.63171151     0.82500
N168        N  0.76849130  0.81761120  0.62538575    -0.78200
C169        C  0.78750318  0.83844265  0.61043822     0.82600
N170        N  0.81153909  0.82262251  0.60124872    -0.79900
C171        C  0.59134102  0.90558513  0.77513825     0.80100
N172        N  0.61387825  0.92482892  0.79006029    -0.78200
C173        C  0.60043069  0.95010412  0.79973463     0.82500
N174        N  0.56481267  0.95586941  0.79445894    -0.78200
C175        C  0.54162431  0.93696872  0.77992461     0.82600
N176        N  0.55530096  0.91194726  0.77018501    -0.79900
C177        C  0.74894667  0.82828179  0.87123691     0.80100
N178        N  0.73177114  0.81520291  0.85522293    -0.78200
C179        C  0.74940435  0.79490276  0.84495188     0.82500
N180        N  0.78384076  0.78784757  0.85064148    -0.78200
C181        C  0.80131716  0.80013031  0.86646547     0.82600
N182        N  0.78397259  0.82091252  0.87673503    -0.79900
Fe183      Fe  0.72272727  0.75767300  0.73754394     1.65800
Fe184      Fe  0.65201257  0.64728186  0.75305389     1.73200
Fe185      Fe  0.61100241  0.69230450  0.72303462     1.54400
O186        O  0.62303911  0.75949830  0.72853069    -0.81800
O187        O  0.62569768  0.59828223  0.73431502    -0.80100
O188        O  0.69128914  0.79702887  0.74196068    -0.84300
O189        O  0.72424576  0.76518571  0.71137149    -0.79200
O190        O  0.56269891  0.66919480  0.74209239    -0.81000
O191        O  0.71767716  0.65512821  0.74745717    -0.83700
C192        C  0.69641251  0.74248675  0.69938004     0.97000
C193        C  0.65239375  0.79314213  0.73778939     1.04500
O194        O  0.66173555  0.69885391  0.73787469    -1.12700
O195        O  0.67581468  0.69054440  0.77375201    -0.75100
O196        O  0.73124616  0.75898945  0.76352905    -0.78600
O197        O  0.65349957  0.71310359  0.70195117    -0.79300
C198        C  0.70818164  0.73261006  0.77583361     0.96000
O199        O  0.75802061  0.72227564  0.73337215    -0.77300
O200        O  0.58410173  0.63050499  0.75968935    -0.82500
C201        C  0.59877676  0.59190848  0.72194132     0.98600
C202        C  0.55429893  0.64124303  0.75432228     1.04500
O203        O  0.59018523  0.62332871  0.71669218    -0.78100
C204        C  0.75226390  0.68303507  0.73814500     1.02800
C205        C  0.28748867  0.46510875  0.77512307     0.80100
N206        N  0.32921824  0.50327418  0.77040746    -0.78200
C207        C  0.36813134  0.51844438  0.78031078     0.82500
N208        N  0.36463366  0.49479275  0.79469542    -0.78200
C209        C  0.32377824  0.45762922  0.79974538     0.82600
N210        N  0.28488361  0.44263548  0.79000343    -0.79900
C211        C  0.06507881  0.27969169  0.86928109     0.80100
N212        N  0.02305137  0.24720004  0.87607790    -0.78200
C213        C  0.98257798  0.23470390  0.86761966     0.82500
N214        N  0.98401465  0.25509453  0.85259655    -0.78200
C215        C  0.02529720  0.28702927  0.84560181     0.82600
N216        N  0.06597144  0.29934373  0.85391604    -0.79900
Fe217      Fe  0.00864733  0.32217980  0.73979732     1.65800
Fe218      Fe  0.04473839  0.43025425  0.72308587     1.73200
Fe219      Fe  0.96283140  0.38701547  0.75478668     1.54400
O220        O  0.90698368  0.31988827  0.74888702    -0.81800
O221        O  0.06833478  0.48169523  0.74115315    -0.80100
O222        O  0.93746940  0.28204952  0.73557116    -0.84300
O223        O  0.00201052  0.31348369  0.76567382    -0.79200
O224        O  0.93709461  0.41202995  0.73655874    -0.81000
O225        O  0.10401960  0.42489942  0.72850490    -0.83700
C226        C  0.99770865  0.33558507  0.77790802     0.97000
C227        C  0.90244966  0.28609115  0.73968423     1.04500
O228        O  0.00540408  0.38016738  0.73924618    -1.12700
O229        O  0.02347154  0.38453102  0.70283535    -0.75100
O230        O  0.01621379  0.31965231  0.71406235    -0.78600
O231        O  0.98463076  0.36524712  0.77569462    -0.79300
C232        C  0.01627046  0.34322658  0.70140768     0.96000
O233        O  0.07991211  0.36005872  0.74392480    -0.77300
O234        O  0.99221978  0.44446419  0.71660498    -0.82500
C235        C  0.05094711  0.48792623  0.75452607     0.98600
C236        C  0.95387317  0.43651460  0.72329147     1.04500
O237        O  0.01289895  0.45567172  0.76107812    -0.78100
C238        C  0.11232914  0.39955142  0.73852147     1.02800
Fe239      Fe  0.34854835  0.42270765  0.90361392     1.65800
Fe240      Fe  0.39069373  0.35450290  0.88877263     1.73200
Fe241      Fe  0.30667046  0.31272829  0.91972452     1.54400
O242        O  0.32711213  0.35723332  0.94027186    -0.81800
O243        O  0.33990565  0.28661718  0.88225447    -0.80100
O244        O  0.34129894  0.42510450  0.92944275    -0.84300
O245        O  0.27769295  0.38793326  0.89931742    -0.79200
O246        O  0.35713908  0.29573471  0.92653264    -0.81000
O247        O  0.37013823  0.37691592  0.86789130    -0.83700
C248        C  0.24368932  0.34873824  0.90404487     0.97000
C249        C  0.33742581  0.39950478  0.94201177     1.04500
O250        O  0.34870773  0.36304059  0.90407053    -1.12700
O251        O  0.44753457  0.42077410  0.89442866    -0.75100
O252        O  0.41971281  0.46071798  0.90788829    -0.78600
O253        O  0.24953911  0.32104217  0.91370792    -0.79300
C254        C  0.45361686  0.45514842  0.90358113     0.96000
O255        O  0.35498804  0.43067877  0.87765230    -0.77300
O256        O  0.41451663  0.32856892  0.90735502    -0.82500
C257        C  0.30080918  0.25537987  0.88840207     0.98600
C258        C  0.39562992  0.30280876  0.92020462     1.04500
O259        O  0.28274250  0.26198212  0.90147889    -0.78100
C260        C  0.35840921  0.40749383  0.86556896     1.02800
C261        C  0.39753534  0.50363739  0.03644676     0.80100
N262        N  0.40050923  0.49020233  0.02037464    -0.78200
C263        C  0.36222457  0.47092157  0.01016212     0.82500
N264        N  0.32130207  0.46521438  0.01596234    -0.78200
C265        C  0.31705358  0.47769061  0.03186747     0.82600
N266        N  0.35555048  0.49724686  0.04209899    -0.79900
C267        C  0.62835105  0.57151923  0.93992956     0.80100
N268        N  0.62715646  0.58946962  0.95537867    -0.78200
C269        C  0.66695633  0.61237687  0.96485362     0.82500
N270        N  0.70734924  0.61675318  0.95890923    -0.78200
C271        C  0.70894180  0.59820501  0.94387310     0.82600
N272        N  0.66940099  0.57593396  0.93433976    -0.79900
Fe273      Fe  0.67952490  0.65704286  0.07108305     1.65800
Fe274      Fe  0.63337708  0.72080189  0.08694909     1.73200
Fe275      Fe  0.71917919  0.76901935  0.05663994     1.54400
O276        O  0.77781539  0.76478038  0.06356893    -0.81800
O277        O  0.60911581  0.74655160  0.06862944    -0.80100
O278        O  0.75097497  0.69366492  0.07504668    -0.84300
O279        O  0.68450938  0.65627095  0.04492491    -0.79200
O280        O  0.73826673  0.81895317  0.07504669    -0.81000
O281        O  0.57829065  0.65458253  0.08082607    -0.83700
C282        C  0.69199183  0.68492533  0.03295907     0.97000
C283        C  0.78369202  0.73527375  0.07202859     1.04500
O284        O  0.67736843  0.71582226  0.07152354    -1.12700
O285        O  0.65355535  0.69713392  0.10746656    -0.75100
O286        O  0.67448140  0.64791779  0.09716378    -0.78600
O287        O  0.70477802  0.72747228  0.03558789    -0.79300
C288        C  0.66702729  0.66777253  0.10950365     0.96000
O289        O  0.60803089  0.61652039  0.06738578    -0.77300
O290        O  0.68125130  0.78863669  0.09425514    -0.82500
C291        C  0.62653756  0.77164613  0.05554045     0.98600
C292        C  0.71833667  0.82286876  0.08809395     1.04500
O293        O  0.66580418  0.78102056  0.04921106    -0.78100
C294        C  0.57321046  0.62029910  0.07194538     1.02800
C295        C  0.72951012  0.16612505  0.70207238     0.80100
N296        N  0.73110425  0.14471747  0.68750610    -0.78200
C297        C  0.69172232  0.11952401  0.67806505     0.82500
N298        N  0.65129230  0.11662109  0.68299585    -0.78200
C299        C  0.64887088  0.13871450  0.69696382     0.82600
N300        N  0.68816153  0.16319640  0.70660897    -0.79900
C301        C  0.95482430  0.23094791  0.60828047     0.80100
N302        N  0.95087077  0.24358009  0.62438893    -0.78200
C303        C  0.98963187  0.26699752  0.63424830     0.82500
N304        N  0.03199097  0.27840198  0.62794343    -0.78200
C305        C  0.03689622  0.26751915  0.61192310     0.82600
N306        N  0.99810470  0.24308787  0.60208949    -0.79900
C307        C  0.39146187  0.93149749  0.53619170     0.80100
N308        N  0.34989070  0.89586213  0.54218254    -0.78200
C309        C  0.30960073  0.88057882  0.53320464     0.82500
N310        N  0.31128261  0.90135601  0.51824138    -0.78200
C311        C  0.35197443  0.93672022  0.51200530     0.82600
N312        N  0.39227792  0.95203335  0.52102697    -0.79900
C313        C  0.62078805  0.13157547  0.44501525     0.80100
N314        N  0.61922221  0.11553677  0.46106932    -0.78200
C315        C  0.65879080  0.13436390  0.47064162     0.82500
N316        N  0.69984333  0.16821265  0.46403090    -0.78200
C317        C  0.70220572  0.18356029  0.44797285     0.82600
N318        N  0.66247369  0.16529698  0.43853117    -0.79900
Fe319      Fe  0.67234661  0.07738312  0.57449255     1.65800
Fe320      Fe  0.63227691  0.96446571  0.58534914     1.73200
Fe321      Fe  0.71913925  0.01808326  0.55607770     1.54400
O322        O  0.69350538  0.04047143  0.53655456    -0.81800
O323        O  0.68341279  0.94639164  0.58942543    -0.80100
O324        O  0.68580603  0.09597339  0.54931277    -0.84300
O325        O  0.74194349  0.11420681  0.58060739    -0.79200
O326        O  0.67325768  0.94873045  0.54904328    -0.81000
O327        O  0.65330098  0.00158903  0.60765413    -0.83700
C328        C  0.77726578  0.11530348  0.57385518     0.97000
C329        C  0.68633046  0.07473307  0.53607145     1.04500
O330        O  0.67479241  0.01975519  0.57203859    -1.12700
O331        O  0.57495656  0.97447346  0.58182694    -0.75100
O332        O  0.60242745  0.04229545  0.56815176    -0.78600
O333        O  0.77291256  0.08641935  0.56226078    -0.79300
C334        C  0.56868153  0.00228602  0.57236516     0.96000
O335        O  0.65972213  0.06950277  0.60025221    -0.77300
O336        O  0.60875908  0.92177760  0.56461988    -0.82500
C337        C  0.72529305  0.96073802  0.58454774     0.98600
C338        C  0.63258124  0.91589022  0.55340510     1.04500
O339        O  0.74665573  0.99353701  0.57385384    -0.78100
C340        C  0.66052661  0.04199175  0.61130214     1.02800
Fe341      Fe  0.34200468  0.97782920  0.40791709     1.65800
Fe342      Fe  0.38357565  0.08669622  0.39232653     1.73200
Fe343      Fe  0.29486884  0.04281035  0.42095711     1.54400
O344        O  0.24056829  0.97458137  0.41539848    -0.81800
O345        O  0.40876996  0.13435951  0.41168319    -0.80100
O346        O  0.27286363  0.93999233  0.40110805    -0.84300
O347        O  0.32764574  0.96640219  0.43348228    -0.79200
O348        O  0.27089481  0.06534656  0.40107604    -0.81000
O349        O  0.43868729  0.07395077  0.39690568    -0.83700
C350        C  0.32467758  0.99056631  0.44531689     0.97000
C351        C  0.23738569  0.94291202  0.40529129     1.04500
O352        O  0.34010132  0.03608016  0.40718478    -1.12700
O353        O  0.35883772  0.04258062  0.37174046    -0.75100
O354        O  0.35756697  0.97979035  0.38240990    -0.78600
O355        O  0.31535872  0.02284466  0.44263207    -0.79300
C356        C  0.35358991  0.00207061  0.36999338     0.96000
O357        O  0.41089534  0.01393296  0.41483206    -0.77300
O358        O  0.33673973  0.10906777  0.38669008    -0.82500
C359        C  0.38546391  0.14277507  0.42246805     0.98600
C360        C  0.29523008  0.09824043  0.39075509     1.04500
O361        O  0.34353058  0.11259392  0.42678104    -0.78100
C362        C  0.44484276  0.05066097  0.40852975     1.02800
C363        C  0.06106032  0.83624332  0.36854944     0.80100
N364        N  0.06422515  0.82486766  0.35209338    -0.78200
C365        C  0.02517506  0.80304658  0.34222752     0.82500
N366        N  0.98348408  0.79227944  0.34890627    -0.78200
C367        C  0.97936605  0.80283459  0.36499198     0.82600
N368        N  0.01814496  0.82489211  0.37493221    -0.79900
C369        C  0.28825329  0.89183398  0.27699674     0.80100
N370        N  0.32998055  0.89908560  0.27069980    -0.78200
C371        C  0.36896196  0.91716846  0.28067355     0.82500
N372        N  0.36552113  0.92760364  0.29695605    -0.78200
C373        C  0.32475627  0.92074686  0.30345394     0.82600
N374        N  0.28611081  0.90318540  0.29344399    -0.79900
C375        C  0.95577769  0.79015339  0.10858938     0.80100
N376        N  0.99883929  0.82437678  0.10310570    -0.78200
C377        C  0.03776687  0.83668932  0.11263966     0.82500
N378        N  0.03315349  0.81348825  0.12726136    -0.78200
C379        C  0.99090978  0.77988301  0.13295008     0.82600
N380        N  0.95180943  0.76861061  0.12379277    -0.79900
C381        C  0.72963953  0.61098095  0.20180747     0.80100
N382        N  0.68690815  0.57854286  0.20827385    -0.78200
C383        C  0.64690525  0.56507167  0.19921409     0.82500
N384        N  0.65042036  0.58496650  0.18390823    -0.78200
C385        C  0.69207537  0.61693766  0.17720668     0.82600
N386        N  0.73205045  0.62971118  0.18609822    -0.79900
Fe387      Fe  0.00896207  0.74915841  0.23758299     1.65800
Fe388      Fe  0.97257020  0.64090691  0.25296253     1.73200
Fe389      Fe  0.05835124  0.68859114  0.22342398     1.54400
O390        O  0.03007761  0.70247584  0.20259218    -0.81800
O391        O  0.02505391  0.62515160  0.25867171    -0.80100
O392        O  0.02573493  0.76308256  0.21209085    -0.84300
O393        O  0.07803922  0.78777440  0.24512586    -0.79200
O394        O  0.01444181  0.61765116  0.21873780    -0.81000
O395        O  0.99529154  0.68531380  0.27353326    -0.83700
C396        C  0.11352198  0.78726326  0.23914270     0.97000
C397        C  0.02228126  0.73584463  0.20017896     1.04500
O398        O  0.01320991  0.69239696  0.23801101    -1.12700
O399        O  0.91401456  0.64900560  0.24782167    -0.75100
O400        O  0.94016289  0.71019320  0.23013945    -0.78600
O401        O  0.10915234  0.75913434  0.22729465    -0.79300
C402        C  0.90723984  0.67186649  0.23609911     0.96000
O403        O  0.99087782  0.74508800  0.26287349    -0.77300
O404        O  0.94910463  0.59241020  0.23384304    -0.82500
C405        C  0.06744672  0.64033723  0.25414382     0.98600
C406        C  0.97353384  0.58553428  0.22312615     1.04500
O407        O  0.08803877  0.67194659  0.24298220    -0.78100
C408        C  0.99672780  0.72408432  0.27526965     1.02800
C409        C  0.14675347  0.75968804  0.77180342     0.80100
N410        N  0.13992827  0.71714833  0.76667654    -0.78200
C411        C  0.11754276  0.67862083  0.77693303     0.82500
N412        N  0.10210455  0.68333091  0.79225303    -0.78200
C413        C  0.10872407  0.72497965  0.79759401     0.82600
N414        N  0.13127852  0.76336134  0.78744064    -0.79900
C415        C  0.20044352  0.98636683  0.86556215     0.80100
N416        N  0.21701031  0.98519341  0.84989736    -0.78200
C417        C  0.24152805  0.02533167  0.84081448     0.82500
N418        N  0.24907977  0.06638256  0.84724827    -0.78200
C419        C  0.23223703  0.06833529  0.86265905     0.82600
N420        N  0.20779386  0.02799216  0.87179680    -0.79900
Fe421      Fe  0.29550048  0.04024262  0.73494272     1.65800
Fe422      Fe  0.40538446  0.08418827  0.75142853     1.73200
Fe423      Fe  0.36529481  0.99843685  0.72126593     1.54400
O424        O  0.29955220  0.94099044  0.72688269    -0.81800
O425        O  0.45688679  0.10810250  0.73334803    -0.80100
O426        O  0.25741737  0.96845581  0.73883558    -0.84300
O427        O  0.29019323  0.03476456  0.70897258    -0.79200
O428        O  0.39050732  0.97615157  0.74052993    -0.81000
O429        O  0.39646318  0.14048287  0.74495216    -0.83700
C430        C  0.31205555  0.02827025  0.69712576     0.97000
C431        C  0.26367579  0.93456973  0.73512400     1.04500
O432        O  0.35565768  0.04106674  0.73584179    -1.12700
O433        O  0.36001395  0.06389426  0.77170064    -0.75100
O434        O  0.29128596  0.04601425  0.76072538    -0.78600
O435        O  0.34232284  0.01625336  0.69979665    -0.79300
C436        C  0.31703220  0.05109935  0.77333983     0.96000
O437        O  0.32899824  0.11164657  0.73107616    -0.77300
O438        O  0.42312753  0.03473083  0.75901374    -0.82500
C439        C  0.46454323  0.08883019  0.72089814     0.98600
C440        C  0.41589462  0.99559049  0.75332443     1.04500
O441        O  0.43339226  0.04951354  0.71489500    -0.78100
C442        C  0.36804413  0.14606963  0.73571871     1.02800
C443        C  0.76797036  0.97593097  0.36538523     0.80100
N444        N  0.74874356  0.97574822  0.35005227    -0.78200
C445        C  0.76418345  0.01627537  0.34118958     0.82500
N446        N  0.79923463  0.05677417  0.34748217    -0.78200
C447        C  0.81988689  0.05780519  0.36235740     0.82600
N448        N  0.80373156  0.01731556  0.37147142    -0.79900
C449        C  0.57182832  0.75370226  0.27579964     0.80100
N450        N  0.59295742  0.75494149  0.29081997    -0.78200
C451        C  0.57819223  0.71482007  0.29989675     0.82500
N452        N  0.54205167  0.67424071  0.29412342    -0.78200
C453        C  0.51974303  0.67236179  0.27958370     0.82600
N454        N  0.53529057  0.71223919  0.27019602    -0.79900
C455        C  0.10354744  0.65550140  0.03137533     0.80100
N456        N  0.08625979  0.65595845  0.01572409    -0.78200
C457        C  0.10461802  0.69630958  0.00658676     0.82500
N458        N  0.14014466  0.73616098  0.01305404    -0.78200
C459        C  0.15807255  0.73687751  0.02846590     0.82600
N460        N  0.13945467  0.69640401  0.03767664    -0.79900
C461        C  0.92202032  0.42462395  0.94188675     0.80100
N462        N  0.89019904  0.38198341  0.93529682    -0.78200
C463        C  0.87451282  0.34230787  0.94476288     0.82500
N464        N  0.89044822  0.34515158  0.96067570    -0.78200
C465        C  0.92143366  0.38680213  0.96753806     0.82600
N466        N  0.93776709  0.42663710  0.95809696    -0.79900
C467        C  0.82077046  0.09362854  0.10967089     0.80100
N468        N  0.80785497  0.09484474  0.12604732    -0.78200
C469        C  0.78627811  0.05500149  0.13552679     0.82500
N470        N  0.77647444  0.01390641  0.12852934    -0.78200
C471        C  0.78849778  0.01163484  0.11240177     0.82600
N472        N  0.81077137  0.05152585  0.10291593    -0.79900
C473        C  0.87853876  0.31550105  0.20176986     0.80100
N474        N  0.89161780  0.31559938  0.18530594    -0.78200
C475        C  0.91573393  0.35670336  0.17658400     0.82500
N476        N  0.92731890  0.39736264  0.18437233    -0.78200
C477        C  0.91477216  0.39812372  0.20053345     0.82600
N478        N  0.88991210  0.35720228  0.20925727    -0.79900
Fe479      Fe  0.96490322  0.37771498  0.07220839     1.65800
Fe480      Fe  0.07592288  0.42091730  0.08540961     1.73200
Fe481      Fe  0.02813314  0.33116941  0.05762582     1.54400
O482        O  0.95939314  0.27746484  0.06360979    -0.81800
O483        O  0.12118987  0.44478423  0.06519865    -0.80100
O484        O  0.92942042  0.30973155  0.08038684    -0.84300
O485        O  0.94829208  0.35835428  0.04711640    -0.79200
O486        O  0.05103207  0.30666350  0.07721264    -0.81000
O487        O  0.06266669  0.47598176  0.08046515    -0.83700
C488        C  0.97379180  0.36075079  0.03471458     0.97000
C489        C  0.93036100  0.27407678  0.07505035     1.04500
O490        O  0.02337271  0.37657272  0.07172263    -1.12700
O491        O  0.03445094  0.39733313  0.10683997    -0.75100
O492        O  0.97143018  0.39743359  0.09737707    -0.78600
O493        O  0.00842228  0.35461532  0.03660013    -0.79300
C494        C  0.99434169  0.39245280  0.10928913     0.96000
O495        O  0.99952826  0.44555697  0.06399170    -0.77300
O496        O  0.09761392  0.37307800  0.09082538    -0.82500
C497        C  0.12855521  0.42027909  0.05464706     0.98600
C498        C  0.08483604  0.33067401  0.08721748     1.04500
O499        O  0.09772220  0.37802732  0.05120077    -0.78100
C500        C  0.03738453  0.48046061  0.06918191     1.02800
Fe501      Fe  0.71992643  0.03259794  0.23860011     1.65800
Fe502      Fe  0.61218451  0.99353695  0.22255002     1.73200
Fe503      Fe  0.65569726  0.07935810  0.25229137     1.54400
O504        O  0.67562554  0.05727426  0.27358174    -0.81800
O505        O  0.59268734  0.04267627  0.21646995    -0.80100
O506        O  0.73371094  0.04892044  0.26382390    -0.84300
O507        O  0.75839576  0.10198438  0.23149320    -0.79200
O508        O  0.58643786  0.02991580  0.25848033    -0.81000
O509        O  0.65792979  0.01889346  0.20226727    -0.83700
C510        C  0.75617952  0.13753256  0.23639514     0.97000
C511        C  0.70893567  0.04939120  0.27591348     1.04500
O512        O  0.66223426  0.03539790  0.23786140    -1.12700
O513        O  0.62306199  0.93694647  0.22751688    -0.75100
O514        O  0.68153933  0.96387246  0.24617952    -0.78600
O515        O  0.72411024  0.13365731  0.24651483    -0.79300
C516        C  0.64401393  0.93069046  0.23997587     0.96000
O517        O  0.71726012  0.01500768  0.21338967    -0.77300
O518        O  0.56316163  0.96786667  0.24155334    -0.82500
C519        C  0.60412485  0.08399758  0.22105264     0.98600
C520        C  0.55607694  0.98854267  0.25373716     1.04500
O521        O  0.63301869  0.10481297  0.23295053    -0.78100
C522        C  0.69770103  0.02227678  0.20088405     1.02800
Fe523      Fe  0.06036223  0.70736220  0.90253711     1.65800
Fe524      Fe  0.94957244  0.65881348  0.88859138     1.73200
Fe525      Fe  0.99099718  0.74647633  0.91743563     1.54400
O526        O  0.01174327  0.72431161  0.93836810    -0.81800
O527        O  0.92583194  0.70494081  0.88290697    -0.80100
O528        O  0.07445759  0.72591858  0.92767530    -0.84300
O529        O  0.09222183  0.77594838  0.89494504    -0.79200
O530        O  0.92187713  0.69665851  0.92314514    -0.81000
O531        O  0.99206110  0.68424736  0.86749789    -0.83700
C532        C  0.08865918  0.80953443  0.90105179     0.97000
C533        C  0.04905866  0.72286203  0.94018587     1.04500
O534        O  0.99980747  0.70411061  0.90288936    -1.12700
O535        O  0.96562863  0.60582704  0.89400301    -0.75100
O536        O  0.02893723  0.63881435  0.91037564    -0.78600
O537        O  0.05864319  0.80289580  0.91251766    -0.79300
C538        C  0.99164971  0.60283069  0.90539231     0.96000
O539        O  0.05739342  0.68997077  0.87719943    -0.77300
O540        O  0.90243360  0.63220310  0.90807609    -0.82500
C541        C  0.93618621  0.74631789  0.88711562     0.98600
C542        C  0.89290667  0.65468050  0.91877013     1.04500
O543        O  0.96768812  0.77029119  0.89790904    -0.78100
C544        C  0.03353677  0.69272689  0.86515034     1.02800
C545        C  0.47038985  0.41297165  0.43950515     0.80100
N546        N  0.45281144  0.41469273  0.45489429    -0.78200
C547        C  0.42818693  0.37527140  0.46428192     0.82500
N548        N  0.42198201  0.33409288  0.45856821    -0.78200
C549        C  0.43994783  0.33125215  0.44350436     0.82600
N550        N  0.46419041  0.37100722  0.43394493    -0.79900
C551        C  0.54531163  0.64669439  0.53383344     0.80100
N552        N  0.55697123  0.68990526  0.54006990    -0.78200
C553        C  0.58214283  0.72914722  0.53030647     0.82500
N554        N  0.59422636  0.72429652  0.51446661    -0.78200
C555        C  0.58354374  0.68221000  0.50822367     0.82600
N556        N  0.55871063  0.64315481  0.51782089    -0.79900
Fe557      Fe  0.62498933  0.69431730  0.40230347     1.65800
Fe558      Fe  0.68650091  0.64576191  0.38713432     1.73200
Fe559      Fe  0.73496409  0.73285645  0.41638615     1.54400
O560        O  0.72669246  0.79085806  0.41161737    -0.81800
O561        O  0.70778817  0.61833885  0.40627900    -0.80100
O562        O  0.66196302  0.76446622  0.39622283    -0.84300
O563        O  0.62808875  0.70708633  0.42789430    -0.79200
O564        O  0.78150726  0.75605517  0.39672108    -0.81000
O565        O  0.61787360  0.59262545  0.39219611    -0.83700
C566        C  0.65290805  0.70655725  0.44002162     0.97000
C567        C  0.70108288  0.79790328  0.40131559     1.04500
O568        O  0.68236615  0.69088554  0.40195766    -1.12700
O569        O  0.66778131  0.67054084  0.36632136    -0.75100
O570        O  0.61242533  0.68279789  0.37671345    -0.78600
O571        O  0.69323060  0.71189063  0.43769097    -0.79300
C572        C  0.63611523  0.68109249  0.36442720     0.96000
O573        O  0.58609763  0.62409902  0.40841487    -0.77300
O574        O  0.75600442  0.69172814  0.38118866    -0.82500
C575        C  0.73860964  0.63958727  0.41758955     0.98600
C576        C  0.78801130  0.73249270  0.38555667     1.04500
O577        O  0.75189668  0.68157299  0.42200254    -0.78100
C578        C  0.58737999  0.58856233  0.40297985     1.02800
C579        C  0.42844042  0.32199337  0.69996613     0.80100
N580        N  0.46238425  0.36429555  0.70608532    -0.78200
C581        C  0.48096707  0.40354368  0.69618136     0.82500
N582        N  0.46547482  0.39974555  0.68008470    -0.78200
C583        C  0.43184519  0.35833327  0.67384543     0.82600
N584        N  0.41311845  0.31936952  0.68375999    -0.79900
C585        C  0.24231553  0.08335098  0.60647618     0.80100
N586        N  0.26438584  0.08564278  0.62134518    -0.78200
C587        C  0.25130762  0.04617438  0.63060127     0.82500
N588        N  0.21656382  0.00454397  0.62484985    -0.78200
C589        C  0.19397566  0.00111191  0.61015025     0.82600
N590        N  0.20705470  0.04091355  0.60093195    -0.79900
Fe591      Fe  0.38553485  0.36460698  0.56869661     1.65800
Fe592      Fe  0.32570727  0.41290122  0.58477740     1.73200
Fe593      Fe  0.27466028  0.32483554  0.55615649     1.54400
O594        O  0.31493205  0.34667714  0.53448431    -0.81800
O595        O  0.25584605  0.36748282  0.59117943    -0.80100
O596        O  0.37769625  0.34563857  0.54350980    -0.84300
O597        O  0.34954165  0.29565658  0.57649661    -0.79200
O598        O  0.25638952  0.37547836  0.55107405    -0.81000
O599        O  0.34493528  0.38762516  0.60514070    -0.83700
C600        C  0.31093284  0.26167050  0.57122608     0.97000
C601        C  0.35451447  0.35063203  0.53174358     1.04500
O602        O  0.32820847  0.36741081  0.56988957    -1.12700
O603        O  0.39508289  0.46553177  0.57934742    -0.75100
O604        O  0.42165621  0.43354014  0.56080372    -0.78600
O605        O  0.28507269  0.26786001  0.56069242    -0.79300
C606        C  0.42225696  0.46906365  0.56723705     0.96000
O607        O  0.40352079  0.38294969  0.59372113    -0.77300
O608        O  0.30438146  0.43996210  0.56576814    -0.82500
C609        C  0.22375621  0.32598328  0.58740244     0.98600
C610        C  0.27133991  0.41792339  0.55530387     1.04500
O611        O  0.23001082  0.30174217  0.57645574    -0.78100
C612        C  0.37999215  0.38203657  0.60652545     1.02800
C613        C  0.29431795  0.21360026  0.57834891    -0.00300
C614        C  0.24581952  0.18091471  0.57894272    -0.12200
C615        C  0.22795892  0.13808365  0.58775407     0.01900
C616        C  0.25883164  0.12679844  0.59612418    -0.00400
C617        C  0.30724272  0.15859159  0.59505710    -0.12100
C618        C  0.32513583  0.20126433  0.58627400     0.01800
H619        H  0.22148715  0.18969369  0.57315587     0.14800
H620        H  0.33142676  0.15008293  0.60118811     0.14800
C621        C  0.37544143  0.23137748  0.58558992     0.36400
C622        C  0.17774163  0.10805642  0.58902819     0.36300
N623        N  0.41577235  0.25540721  0.58506269    -0.43900
N624        N  0.13748317  0.08416699  0.59013427    -0.43900
C625        C  0.41576763  0.35743097  0.65647053    -0.00300
C626        C  0.44871600  0.37118079  0.64337570    -0.12200
C627        C  0.43813414  0.37929827  0.62701830     0.01900
C628        C  0.39345813  0.37369380  0.62356739    -0.00400
C629        C  0.36030965  0.35912194  0.63676581    -0.12100
C630        C  0.37123592  0.35136103  0.65312789     0.01800
H631        H  0.48350379  0.37713594  0.64610933     0.14800
H632        H  0.32589943  0.35454058  0.63441579     0.14800
C633        C  0.33759665  0.34093676  0.66651388     0.36400
C634        C  0.47477423  0.39547280  0.61440165     0.36300
N635        N  0.31072244  0.33317963  0.67722365    -0.43900
N636        N  0.50421947  0.40848357  0.60433203    -0.43900
C637        C  0.59615709  0.68053270  0.49053492    -0.00300
C638        C  0.58120676  0.70125751  0.47844372    -0.12200
C639        C  0.59931877  0.71032477  0.46204388     0.01900
C640        C  0.63332211  0.69835766  0.45740227    -0.00400
C641        C  0.64754603  0.67653338  0.46948465    -0.12100
C642        C  0.62923943  0.66759454  0.48598692     0.01800
H643        H  0.55648956  0.71220017  0.48207882     0.14800
H644        H  0.67322545  0.66670398  0.46608226     0.14800
C645        C  0.64681546  0.64774671  0.49825619     0.36400
C646        C  0.58409151  0.73435425  0.45065806     0.36300
N647        N  0.66098935  0.63195226  0.50810772    -0.43900
N648        N  0.57184130  0.75364729  0.44158462    -0.43900
C649        C  0.51378474  0.60283098  0.54334493    -0.00300
C650        C  0.47664907  0.56619877  0.53443253    -0.12200
C651        C  0.44630488  0.52330277  0.54226530     0.01900
C652        C  0.45321446  0.51557695  0.55933889    -0.00400
C653        C  0.48964766  0.55237627  0.56850598    -0.12100
C654        C  0.51989086  0.59590234  0.56064492     0.01800
H655        H  0.47082735  0.57134793  0.52127458     0.14800
H656        H  0.49501631  0.54683039  0.58166110     0.14800
C657        C  0.55802591  0.63199443  0.57033509     0.36400
C658        C  0.40676084  0.48845071  0.53270167     0.36300
N659        N  0.58867312  0.66091397  0.57809282    -0.43900
N660        N  0.37472970  0.46095231  0.52508619    -0.43900
C661        C  0.49693608  0.45680052  0.42909820    -0.00300
C662        C  0.52768761  0.45883757  0.41636940    -0.12200
C663        C  0.55587704  0.50021482  0.40710319     0.01900
C664        C  0.55352796  0.54127868  0.41032900    -0.00400
C665        C  0.52108919  0.53838977  0.42250781    -0.12100
C666        C  0.49330218  0.49731452  0.43184324     0.01800
H667        H  0.53104351  0.42833746  0.41397658     0.14800
H668        H  0.51816025  0.56900570  0.42521071     0.14800
C669        C  0.46169226  0.49856855  0.44419180     0.36400
C670        C  0.58786893  0.49939796  0.39484644     0.36300
N671        N  0.43664959  0.49991303  0.45412550    -0.43900
N672        N  0.61351194  0.49856506  0.38506434    -0.43900
C673        C  0.40988192  0.37647517  0.48104220    -0.00300
C674        C  0.44052276  0.39052199  0.49481203    -0.12200
C675        C  0.42340709  0.38347042  0.51139019     0.01900
C676        C  0.37439611  0.36117756  0.51435713    -0.00400
C677        C  0.34409795  0.34981596  0.50039681    -0.12100
C678        C  0.36152741  0.35723022  0.48381672     0.01800
H679        H  0.47780613  0.40559851  0.49260328     0.14800
H680        H  0.30667352  0.33404569  0.50239426     0.14800
C681        C  0.32930926  0.34461850  0.46979818     0.36400
C682        C  0.45729566  0.40015909  0.52497800     0.36300
N683        N  0.30369992  0.33493331  0.45851610    -0.43900
N684        N  0.48462612  0.41369972  0.53580181    -0.43900
C685        C  0.92960683  0.35926108  0.15864975    -0.00300
C686        C  0.95592439  0.33891545  0.15348225    -0.12200
C687        C  0.97754291  0.34928206  0.13746698     0.01900
C688        C  0.97313837  0.38081263  0.12644240    -0.00400
C689        C  0.94471846  0.39899021  0.13136182    -0.12100
C690        C  0.92302478  0.38848228  0.14721533     0.01800
H691        H  0.96096526  0.31630257  0.16215350     0.14800
H692        H  0.93979582  0.42199239  0.12284344     0.14800
C693        C  0.89403984  0.40825631  0.15147454     0.36400
C694        C  0.00253579  0.32585338  0.13243751     0.36300
N695        N  0.87083084  0.42403936  0.15494024    -0.43900
N696        N  0.02228202  0.30685004  0.12833106    -0.43900
C697        C  0.85047719  0.27036726  0.21138911    -0.00300
C698        C  0.82373106  0.26924367  0.22547593    -0.12200
C699        C  0.79439906  0.22734426  0.23430761     0.01900
C700        C  0.79111703  0.18468690  0.22917048    -0.00400
C701        C  0.81966777  0.18640157  0.21559549    -0.12100
C702        C  0.84894710  0.22819990  0.20679757     0.01800
H703        H  0.82471966  0.30112469  0.22943645     0.14800
H704        H  0.81844177  0.15455226  0.21143703     0.14800
C705        C  0.87723184  0.22626503  0.19323511     0.36400
C706        C  0.76803252  0.22965509  0.24847632     0.36300
N707        N  0.89978799  0.22440929  0.18239084    -0.43900
N708        N  0.74700818  0.23172937  0.25982687    -0.43900
C709        C  0.89770876  0.22729514  0.08293717    -0.00300
C710        C  0.89234645  0.18625513  0.07549251    -0.12200
C711        C  0.86609175  0.14216565  0.08338709     0.01900
C712        C  0.84545450  0.13832344  0.09953834    -0.00400
C713        C  0.84925920  0.17915174  0.10657715    -0.12100
C714        C  0.87425750  0.22282321  0.09851823     0.01800
H715        H  0.90907127  0.18853781  0.06342197     0.14800
H716        H  0.83276414  0.17732814  0.11865545     0.14800
C717        C  0.87530947  0.26208884  0.10696399     0.36400
C718        C  0.86124306  0.10200582  0.07439100     0.36300
N719        N  0.87525858  0.29298025  0.11381548    -0.43900
N720        N  0.85717707  0.07008973  0.06690910    -0.43900
C721        C  0.77052817  0.05407222  0.15307824    -0.00300
C722        C  0.74241507  0.07353360  0.15677704    -0.12200
C723        C  0.71841094  0.06395796  0.17228333     0.01900
C724        C  0.72233350  0.03419550  0.18432370    -0.00400
C725        C  0.75285173  0.01730362  0.18092033    -0.12100
C726        C  0.77680708  0.02695513  0.16554074     0.01800
H727        H  0.73763934  0.09459738  0.14728683     0.14800
H728        H  0.75740259  0.99560323  0.19019596     0.14800
C729        C  0.80752176  0.00828685  0.16279844     0.36400
C730        C  0.69113036  0.08609353  0.17563609     0.36300
N731        N  0.83212341  0.99336266  0.16058411    -0.43900
N732        N  0.66963324  0.10422915  0.17833362    -0.43900
C733        C  0.93561018  0.38685399  0.98530051    -0.00300
C734        C  0.98311094  0.40628831  0.98942561    -0.12200
C735        C  0.99651461  0.39853858  0.00546940     0.01900
C736        C  0.96191286  0.37053891  0.01761126    -0.00400
C737        C  0.91460080  0.35338535  0.01368188    -0.12100
C738        C  0.90129718  0.36122641  0.99776156     0.01800
H739        H  0.00965312  0.42620960  0.97995222     0.14800
H740        H  0.88771370  0.33299514  0.02299446     0.14800
C741        C  0.85196171  0.34248483  0.99447463     0.36400
C742        C  0.04588626  0.42129961  0.00934379     0.36300
N743        N  0.81251934  0.32757761  0.99175552    -0.43900
N744        N  0.08548666  0.44015569  0.01247065    -0.43900
C745        C  0.94027156  0.46883246  0.93156754    -0.00300
C746        C  0.98259620  0.50850523  0.93646761    -0.12200
C747        C  0.00081271  0.55160103  0.92793770     0.01900
C748        C  0.97692037  0.55625594  0.91371897    -0.00400
C749        C  0.93508327  0.51619206  0.90856210    -0.12100
C750        C  0.91657213  0.47316263  0.91728441     0.01800
H751        H  0.00162851  0.50620796  0.94728102     0.14800
H752        H  0.91564555  0.51870780  0.89793245     0.14800
C753        C  0.87192973  0.43512011  0.91166045     0.36400
C754        C  0.04325297  0.59047108  0.93473996     0.36300
N755        N  0.83606619  0.40497928  0.90703695    -0.43900
N756        N  0.07709009  0.62137963  0.94037260    -0.43900
C757        C  0.08421313  0.61088891  0.04148409    -0.00300
C758        C  0.10566691  0.61113406  0.05699079    -0.12200
C759        C  0.09058444  0.56998788  0.06660118     0.01900
C760        C  0.05270728  0.52689660  0.06088723    -0.00400
C761        C  0.03039306  0.52701788  0.04569291    -0.12100
C762        C  0.04553756  0.56776264  0.03602447     0.01800
H763        H  0.13506573  0.64355326  0.06161116     0.14800
H764        H  0.00143526  0.49450647  0.04089455     0.14800
C765        C  0.02058699  0.56298256  0.02043217     0.36400
C766        C  0.11490519  0.57341553  0.08220182     0.36300
N767        N  0.00033882  0.55844338  0.00795027    -0.43900
N768        N  0.13455930  0.57639512  0.09469535    -0.43900
C769        C  0.08815375  0.69830021  0.98947163    -0.00300
C770        C  0.12236068  0.72168992  0.97698503    -0.12200
C771        C  0.11072959  0.73155379  0.96114915     0.01900
C772        C  0.06339138  0.71646387  0.95729977    -0.00400
C773        C  0.02894088  0.69276306  0.96983462    -0.12100
C774        C  0.04104190  0.68396975  0.98590599     0.01800
H775        H  0.15878354  0.73349478  0.97981058     0.14800
H776        H  0.99252140  0.68119040  0.96711179     0.14800
C777        C  0.00523418  0.66303757  0.99879119     0.36400
C778        C  0.14863199  0.75944716  0.94953051     0.36300
N779        N  0.97664159  0.64663917  0.00917521    -0.43900
N780        N  0.17904684  0.78205984  0.94028799    -0.43900
C781        C  0.60124434  0.71280181  0.31563131    -0.00300
C782        C  0.60879066  0.67478486  0.31758802    -0.12200
C783        C  0.62152519  0.66463785  0.33321077     0.01900
C784        C  0.62641075  0.69254945  0.34736010    -0.00400
C785        C  0.62089087  0.73188546  0.34529010    -0.12100
C786        C  0.60885718  0.74249561  0.32950990     0.01800
H787        H  0.60293037  0.65173146  0.30695059     0.14800
H788        H  0.62537531  0.75399222  0.35609205     0.14800
C789        C  0.60191636  0.78218069  0.32812403     0.36400
C790        C  0.62611888  0.62352914  0.33461554     0.36300
N791        N  0.59645857  0.81404628  0.32694477    -0.43900
N792        N  0.62970624  0.59052934  0.33573733    -0.43900
C793        C  0.62296391  0.88430278  0.24852644    -0.00300
C794        C  0.61418270  0.84384775  0.23968033    -0.12200
C795        C  0.59687864  0.80059412  0.24820551     0.01900
C796        C  0.58830162  0.79761245  0.26587469    -0.00400
C797        C  0.59611298  0.83787836  0.27451625    -0.12100
C798        C  0.61246080  0.88057955  0.26601867     0.01800
H799        H  0.62189358  0.84626843  0.22624639     0.14800
H800        H  0.58854227  0.83576121  0.28796537     0.14800
C801        C  0.61547267  0.91942351  0.27542383     0.36400
C802        C  0.59050779  0.76047377  0.23873862     0.36300
N803        N  0.61668048  0.94982844  0.28306816    -0.43900
N804        N  0.58552673  0.72832394  0.23116845    -0.43900
C805        C  0.71768900  0.84604393  0.39409656    -0.00300
C806        C  0.68788074  0.85184269  0.38282631    -0.12200
C807        C  0.70298596  0.89356888  0.37370629     0.01900
C808        C  0.74940716  0.93155528  0.37555644    -0.00400
C809        C  0.77866684  0.92684582  0.38741059    -0.12100
C810        C  0.76347327  0.88492356  0.39660294     0.01800
H811        H  0.65242460  0.82319201  0.38079513     0.14800
H812        H  0.81413787  0.95567966  0.38923740     0.14800
C813        C  0.79632028  0.88298593  0.40817655     0.36400
C814        C  0.66924117  0.89628075  0.36283640     0.36300
N815        N  0.82276884  0.88167930  0.41746262    -0.43900
N816        N  0.64209999  0.89843258  0.35417931    -0.43900
C817        C  0.74280804  0.01825015  0.32507059    -0.00300
C818        C  0.72845301  0.05152786  0.32346046    -0.12200
C819        C  0.71590433  0.06141480  0.30770716     0.01900
C820        C  0.71881359  0.03854564  0.29310996    -0.00400
C821        C  0.73164650  0.00401769  0.29485378    -0.12100
C822        C  0.74318039  0.99342676  0.31069164     0.01800
H823        H  0.72842894  0.07092648  0.33452319     0.14800
H824        H  0.73303196  0.98546761  0.28375551     0.14800
C825        C  0.75798919  0.95915358  0.31170676     0.36400
C826        C  0.70287329  0.09702140  0.30677427     0.36300
N827        N  0.76986155  0.93168949  0.31254001    -0.43900
N828        N  0.69238618  0.12553817  0.30603756    -0.43900
C829        C  0.38177266  0.19390286  0.72896135    -0.00300
C830        C  0.35102429  0.19805573  0.71764836    -0.12200
C831        C  0.36467586  0.23942830  0.70848395     0.01900
C832        C  0.41013409  0.27873303  0.71059954    -0.00400
C833        C  0.43987291  0.27578702  0.72265806    -0.12100
C834        C  0.42643475  0.23420991  0.73173555     0.01800
H835        H  0.31640856  0.16816362  0.71537608     0.14800
H836        H  0.47483226  0.30550372  0.72448557     0.14800
C837        C  0.46030842  0.23404373  0.74325787     0.36400
C838        C  0.33098250  0.23986302  0.69693825     0.36300
N839        N  0.48774169  0.23422879  0.75243211    -0.43900
N840        N  0.30353196  0.23937656  0.68770271    -0.43900
C841        C  0.30164091  0.03534432  0.67952895    -0.00300
C842        C  0.29647806  0.07415872  0.67577741    -0.12200
C843        C  0.28298726  0.08033959  0.65957578     0.01900
C844        C  0.27389766  0.04686836  0.64686589    -0.00400
C845        C  0.28093458  0.00914010  0.65048411    -0.12100
C846        C  0.29478357  0.00319498  0.66659368     0.01800
H847        H  0.30210964  0.09925585  0.68565194     0.14800
H848        H  0.27399198  0.98317734  0.64080387     0.14800
C849        C  0.29823944  0.96195632  0.66982313     0.36400
C850        C  0.27565134  0.11938012  0.65673258     0.36300
N851        N  0.30080197  0.92881679  0.67244269    -0.43900
N852        N  0.26973291  0.15066575  0.65449244    -0.43900
C853        C  0.26042762  0.02560258  0.82400948    -0.00300
C854        C  0.22980344  0.00922176  0.81022314    -0.12200
C855        C  0.24703822  0.01696044  0.79361868     0.01900
C856        C  0.29623920  0.04133858  0.79065426    -0.00400
C857        C  0.32658139  0.05599449  0.80470596    -0.12100
C858        C  0.30910534  0.04864407  0.82123445     0.01800
H859        H  0.19229184  0.99204217  0.81242946     0.14800
H860        H  0.36424140  0.07420574  0.80283857     0.14800
C861        C  0.34176215  0.06549071  0.83520412     0.36400
C862        C  0.21301964  0.99989711  0.78007899     0.36300
N863        N  0.36785265  0.07887833  0.84641732    -0.43900
N864        N  0.18545743  0.98635704  0.76933203    -0.43900
C865        C  0.17457409  0.94265541  0.87577098    -0.00300
C866        C  0.13662496  0.93595322  0.88584483    -0.12200
C867        C  0.10895787  0.89377512  0.89469579     0.01900
C868        C  0.11997618  0.85750850  0.89399445    -0.00400
C869        C  0.15948779  0.86545640  0.88457133    -0.12100
C870        C  0.18628323  0.90699369  0.87539688     0.01800
H871        H  0.12718751  0.96299279  0.88620456     0.14800
H872        H  0.16899099  0.83851320  0.88397808     0.14800
C873        C  0.22568542  0.91184222  0.86577661     0.36400
C874        C  0.06785689  0.88790448  0.90337088     0.36300
N875        N  0.25705401  0.91544225  0.85801748    -0.43900
N876        N  0.03477440  0.88322653  0.91020668    -0.43900
C877        C  0.17225328  0.80212814  0.76067410    -0.00300
C878        C  0.20784062  0.80613523  0.74983241    -0.12200
C879        C  0.23605328  0.84735762  0.74046404     0.01900
C880        C  0.22931486  0.88645775  0.74187304    -0.00400
C881        C  0.19135620  0.88087092  0.75179657    -0.12100
C882        C  0.16303822  0.83957135  0.76103140     0.01800
H883        H  0.21495732  0.77753929  0.74913047     0.14800
H884        H  0.18429691  0.90945078  0.75278229     0.14800
C885        C  0.12428279  0.83656280  0.77054541     0.36400
C886        C  0.27219771  0.84834956  0.72989794     0.36300
N887        N  0.09313251  0.83420196  0.77808826    -0.43900
N888        N  0.30098052  0.84882209  0.72140935    -0.43900
C889        C  0.09061873  0.72662859  0.81443421    -0.00300
C890        C  0.12102835  0.74002430  0.82830085    -0.12200
C891        C  0.10353996  0.73023906  0.84491224     0.01900
C892        C  0.05437003  0.70588617  0.84783334    -0.00400
C893        C  0.02431073  0.69512160  0.83382209    -0.12100
C894        C  0.04200652  0.70508600  0.81727222     0.01800
H895        H  0.15845574  0.75624798  0.82611761     0.14800
H896        H  0.98669768  0.67759853  0.83571651     0.14800
C897        C  0.00953886  0.69168410  0.80330246     0.36400
C898        C  0.13717608  0.74576309  0.85856071     0.36300
N899        N  0.98358198  0.68113996  0.79209608    -0.43900
N900        N  0.16441620  0.75834903  0.86940495    -0.43900
C901        C  0.95616303  0.53733016  0.21672893    -0.00300
C902        C  0.98977759  0.52556963  0.21181181    -0.12200
C903        C  0.97688448  0.47982443  0.20740497     0.01900
C904        C  0.92937512  0.44417618  0.20802196    -0.00400
C905        C  0.89538362  0.45540626  0.21285323    -0.12100
C906        C  0.90828718  0.50172372  0.21702817     0.01800
H907        H  0.02661029  0.55206817  0.21162088     0.14800
H908        H  0.85863096  0.42847254  0.21259006     0.14800
C909        C  0.87160323  0.51208612  0.22060218     0.36400
C910        C  0.01331066  0.47045602  0.20219644     0.36300
N911        N  0.84222810  0.52053764  0.22330935    -0.43900
N912        N  0.04255279  0.46318408  0.19794073    -0.43900
C913        C  0.77370518  0.62451992  0.21137023    -0.00300
C914        C  0.81174574  0.62692310  0.20258296    -0.12200
C915        C  0.85437886  0.64031327  0.21073205     0.01900
C916        C  0.86026001  0.65244372  0.22808290    -0.00400
C917        C  0.82210148  0.64931448  0.23706025    -0.12100
C918        C  0.77910827  0.63567594  0.22886000     0.01800
H919        H  0.80803416  0.61787129  0.18924612     0.14800
H920        H  0.82640201  0.65916575  0.25031826     0.14800
C921        C  0.74236294  0.63671071  0.23836334     0.36400
C922        C  0.89131252  0.64001691  0.20106297     0.36300
N923        N  0.71312464  0.63800208  0.24598192    -0.43900
N924        N  0.92044156  0.63904983  0.19326305    -0.43900
C925        C  0.00942578  0.74329995  0.18290293    -0.00300
C926        C  0.02554231  0.72912513  0.16895054    -0.12200
C927        C  0.01623056  0.73717831  0.15240059     0.01900
C928        C  0.98934063  0.75875989  0.14952084    -0.00400
C929        C  0.97051098  0.77016487  0.16333393    -0.12100
C930        C  0.98045748  0.76289019  0.17996570     0.01800
H931        H  0.04704231  0.71331132  0.17094107     0.14800
H932        H  0.95041696  0.78742208  0.16114339     0.14800
C933        C  0.96065405  0.77623446  0.19365066     0.36400
C934        C  0.03616746  0.72461642  0.13851959     0.36300
N935        N  0.94471899  0.78716685  0.20452535    -0.43900
N936        N  0.05222184  0.71465099  0.12740168    -0.43900
C937        C  0.50901851  0.96455720  0.26181162    -0.00300
C938        C  0.46990624  0.93393200  0.25196741    -0.12200
C939        C  0.42398735  0.91621734  0.25791130     0.01900
C940        C  0.41630135  0.92945083  0.27408018    -0.00400
C941        C  0.45579069  0.95715874  0.28437894    -0.12100
C942        C  0.50154179  0.97440535  0.27847812     0.01800
H943        H  0.47507393  0.92510732  0.23923454     0.14800
H944        H  0.45133517  0.96664203  0.29708674     0.14800
C945        C  0.54005528  0.00159338  0.28989662     0.36400
C946        C  0.38606201  0.88463862  0.24703062     0.36300
N947        N  0.57088648  0.02311177  0.29907690    -0.43900
N948        N  0.35626142  0.85915173  0.23812360    -0.43900
C949        C  0.24504719  0.86971412  0.26619453    -0.00300
C950        C  0.24194663  0.84020142  0.25286051    -0.12200
C951        C  0.20084985  0.81507455  0.24325710     0.01900
C952        C  0.16084449  0.81897534  0.24684575    -0.00400
C953        C  0.16484234  0.85041145  0.25965890    -0.12100
C954        C  0.20603551  0.87556221  0.26922952     0.01800
H955        H  0.27125661  0.83507000  0.25030417     0.14800
H956        H  0.13511163  0.85462844  0.26260267     0.14800
C957        C  0.20696740  0.90723452  0.28199799     0.36400
C958        C  0.20073955  0.78420873  0.23032340     0.36300
N959        N  0.20750949  0.93256897  0.29220772    -0.43900
N960        N  0.20087542  0.75950193  0.21999079    -0.43900
C961        C  0.83608839  0.75184010  0.37865522    -0.00300
C962        C  0.87061394  0.79820531  0.38281553    -0.12200
C963        C  0.91796188  0.81567667  0.37893612     0.01900
C964        C  0.93162429  0.78612817  0.37124404    -0.00400
C965        C  0.89729298  0.74042780  0.36672326    -0.12100
C966        C  0.84998917  0.72336967  0.36997866     0.01800
H967        H  0.86071018  0.82105505  0.38911146     0.14800
H968        H  0.90751948  0.71803500  0.36023312     0.14800
C969        C  0.81716399  0.67661471  0.36410099     0.36400
C970        C  0.95098315  0.86468052  0.38180993     0.36300
N971        N  0.79106997  0.63936029  0.35918604    -0.43900
N972        N  0.97700474  0.90422421  0.38387461    -0.43900
C973        C  0.02501003  0.78919340  0.32437081    -0.00300
C974        C  0.99068501  0.78889816  0.31370122    -0.12200
C975        C  0.98041359  0.76711364  0.29793860     0.01900
C976        C  0.00565130  0.74596510  0.29218543    -0.00400
C977        C  0.04132448  0.74763702  0.30246364    -0.12100
C978        C  0.05120743  0.76905011  0.31848533     0.01800
H979        H  0.97000951  0.80400520  0.31804508     0.14800
H980        H  0.06132859  0.73193574  0.29799672     0.14800
C981        C  0.08639843  0.76761254  0.32888334     0.36400
C982        C  0.94136635  0.76387638  0.28851524     0.36300
N983        N  0.11464118  0.76638072  0.33718830    -0.43900
N984        N  0.90977881  0.76084999  0.28106310    -0.43900
C985        C  0.40612819  0.19132360  0.42881934    -0.00300
C986        C  0.42772467  0.22836465  0.41706628    -0.12200
C987        C  0.44013567  0.27437034  0.42141604     0.01900
C988        C  0.43188046  0.28434115  0.43806606    -0.00400
C989        C  0.41280259  0.24728979  0.45003706    -0.12100
C990        C  0.39946626  0.20127311  0.44553124     0.01800
H991        H  0.43238823  0.22084978  0.40407248     0.14800
H992        H  0.40696876  0.25375955  0.46301187     0.14800
C993        C  0.37881054  0.16484318  0.45826566     0.36400
C994        C  0.45865262  0.30947175  0.40819804     0.36300
N995        N  0.36223236  0.13561288  0.46844977    -0.43900
N996        N  0.47327002  0.33726555  0.39747743    -0.43900
C997        C  0.10431614  0.86012434  0.37932728    -0.00300
C998        C  0.14435576  0.85920099  0.37394168    -0.12200
C999        C  0.18697762  0.88313627  0.38267539     0.01900
C1000       C  0.19104686  0.91000971  0.39727338    -0.00400
C1001       C  0.15048647  0.90918317  0.40314166    -0.12100
C1002       C  0.10751998  0.88441529  0.39454457     0.01800
H1003       H  0.14271016  0.83987402  0.36263602     0.14800
H1004       H  0.15243211  0.92888302  0.41438552     0.14800
C1005       C  0.06815560  0.88585790  0.40172753     0.36400
C1006       C  0.22583450  0.88002851  0.37581115     0.36300
N1007       N  0.03723767  0.88728602  0.40797237    -0.43900
N1008       N  0.25650680  0.87691651  0.37021179    -0.43900
C1009       C  0.34283167  0.97961851  0.35303307    -0.00300
C1010       C  0.35505458  0.94533895  0.34977095    -0.12200
C1011       C  0.34622296  0.92330603  0.33402988     0.01900
C1012       C  0.32474677  0.93538036  0.32107707    -0.00400
C1013       C  0.31008927  0.96761366  0.32450245    -0.12100
C1014       C  0.31886910  0.98976720  0.34031736     0.01800
H1015       H  0.37230045  0.93612493  0.35946973     0.14800
H1016       H  0.29359456  0.97702984  0.31457834     0.14800
C1017       C  0.30240545  0.02224049  0.34312440     0.36400
C1018       C  0.35953176  0.88827075  0.33145725     0.36300
N1019       N  0.28914810  0.04821730  0.34536915    -0.43900
N1020       N  0.37004528  0.86011282  0.32938420    -0.43900
C1021       C  0.59446355  0.77707093  0.53598797    -0.00300
C1022       C  0.56735644  0.78226117  0.54850126    -0.12200
C1023       C  0.57675266  0.82685594  0.55364122     0.01900
C1024       C  0.61455721  0.86796767  0.54626223    -0.00400
C1025       C  0.64062018  0.86252985  0.53339345    -0.12100
C1026       C  0.63142123  0.81821631  0.52831030     0.01800
H1027       H  0.53845752  0.75131380  0.55427933     0.14800
H1028       H  0.66974846  0.89325130  0.52759032     0.14800
C1029       C  0.66222338  0.81696089  0.51558163     0.36400
C1030       C  0.54747887  0.82867876  0.56684318     0.36300
N1031       N  0.68690686  0.81627610  0.50533346    -0.43900
N1032       N  0.52390359  0.82992172  0.57742377    -0.43900
C1033       C  0.65927364  0.11728195  0.48783225    -0.00300
C1034       C  0.68294232  0.15074949  0.50047699    -0.12200
C1035       C  0.69184761  0.13777592  0.51627794     0.01900
C1036       C  0.67741421  0.09023546  0.51958485    -0.00400
C1037       C  0.65273150  0.05655980  0.50701750    -0.12100
C1038       C  0.64333461  0.06963765  0.49125097     0.01800
H1039       H  0.69573056  0.18753478  0.49780032     0.14800
H1040       H  0.64089322  0.01989721  0.50949173     0.14800
C1041       C  0.61990326  0.03402766  0.47849674     0.36400
C1042       C  0.71798481  0.17445382  0.52845456     0.36300
N1043       N  0.60119617  0.00548107  0.46826867    -0.43900
N1044       N  0.73889918  0.20394598  0.53817099    -0.43900
C1045       C  0.49258654  0.06870795  0.41583964    -0.00300
C1046       C  0.52626990  0.11642206  0.41361451    -0.12200
C1047       C  0.56844242  0.13750656  0.42272382     0.01900
C1048       C  0.57784825  0.11072216  0.43439999    -0.00400
C1049       C  0.54532828  0.06268437  0.43607467    -0.12100
C1050       C  0.50335951  0.04144974  0.42688432     0.01800
H1051       H  0.51876708  0.13811502  0.40535111     0.14800
H1052       H  0.55269459  0.04149429  0.44466070     0.14800
C1053       C  0.47230644  0.99162439  0.42919077     0.36400
C1054       C  0.59980752  0.18733482  0.42061060     0.36300
N1055       N  0.44763728  0.95169477  0.43110168    -0.43900
N1056       N  0.62480018  0.22728154  0.41890109    -0.43900
C1057       C  0.43522836  0.94925381  0.54645129    -0.00300
C1058       C  0.46821645  0.99747086  0.54627890    -0.12200
C1059       C  0.51023523  0.01608840  0.55549151     0.01900
C1060       C  0.52096621  0.98604317  0.56497203    -0.00400
C1061       C  0.48707461  0.93789901  0.56555092    -0.12100
C1062       C  0.44472109  0.91946952  0.55653184     0.01800
H1063       H  0.46099760  0.02099051  0.53896576     0.14800
H1064       H  0.49431077  0.91396202  0.57256793     0.14800
C1065       C  0.41293120  0.86940935  0.55717691     0.36400
C1066       C  0.54125617  0.06630565  0.55493563     0.36300
N1067       N  0.38752405  0.82927733  0.55773187    -0.43900
N1068       N  0.56592004  0.10657898  0.55449276    -0.43900
C1069       C  0.35030234  0.95760120  0.49555901    -0.00300
C1070       C  0.31131402  0.96295191  0.49236759    -0.12200
C1071       C  0.30281897  0.97465813  0.47622781     0.01900
C1072       C  0.33353017  0.98098485  0.46281929    -0.00400
C1073       C  0.37338345  0.97719908  0.46605926    -0.12100
C1074       C  0.38217587  0.96590869  0.48228933     0.01800
H1075       H  0.28640144  0.95639556  0.50244420     0.14800
H1076       H  0.39740638  0.98249134  0.45580053     0.14800
C1077       C  0.42234520  0.96020076  0.48466968     0.36400
C1078       C  0.26062845  0.97663845  0.47349068     0.36300
N1079       N  0.45457432  0.95564036  0.48652743    -0.43900
N1080       N  0.22669647  0.97796827  0.47125406    -0.43900
C1081       C  0.08459582  0.28227355  0.60570571    -0.00300
C1082       C  0.09183444  0.25155614  0.59572478    -0.12200
C1083       C  0.13700319  0.26326731  0.59047513     0.01900
C1084       C  0.17626777  0.30726768  0.59500865    -0.00400
C1085       C  0.16869786  0.33728792  0.60539803    -0.12100
C1086       C  0.12373897  0.32551106  0.61064433     0.01800
H1087       H  0.06213450  0.21786237  0.59224248     0.14800
H1088       H  0.19787580  0.37111123  0.60905782     0.14800
C1089       C  0.11895214  0.35972157  0.62048115     0.36400
C1090       C  0.14125333  0.22906366  0.58048759     0.36300
N1091       N  0.11536041  0.38722736  0.62836662    -0.43900
N1092       N  0.14407292  0.20124943  0.57251649    -0.43900
C1093       C  0.91192734  0.20430514  0.59771089    -0.00300
C1094       C  0.87562267  0.21429192  0.59947196    -0.12200
C1095       C  0.83277019  0.18794354  0.59104444     0.01900
C1096       C  0.82492687  0.14980534  0.58054357    -0.00400
C1097       C  0.86224594  0.14132556  0.57813164    -0.12100
C1098       C  0.90526824  0.16792513  0.58658738     0.01800
H1099       H  0.88052432  0.24266516  0.60770463     0.14800
H1100       H  0.85711902  0.11221294  0.57028933     0.14800
C1101       C  0.94045688  0.15464926  0.58455794     0.36400
C1102       C  0.79754925  0.20092162  0.59372555     0.36300
N1103       N  0.96844806  0.14371489  0.58294499    -0.43900
N1104       N  0.76941838  0.21138001  0.59598032    -0.43900
C1105       C  0.60285227  0.13368721  0.70185621    -0.00300
C1106       C  0.59730808  0.14675582  0.71820641    -0.12200
C1107       C  0.55310009  0.13600320  0.72426485     0.01900
C1108       C  0.51285202  0.11105889  0.71389925    -0.00400
C1109       C  0.51891179  0.10157618  0.69712942    -0.12100
C1110       C  0.56313008  0.11312676  0.69093881     0.01800
H1111       H  0.62721258  0.16354662  0.72664302     0.14800
H1112       H  0.48858637  0.08367474  0.68891508     0.14800
C1113       C  0.56570572  0.10257870  0.67335390     0.36400
C1114       C  0.55013162  0.14824916  0.74158432     0.36300
N1115       N  0.56743199  0.09400808  0.65926052    -0.43900
N1116       N  0.54800260  0.15828340  0.75545100    -0.43900
C1117       C  0.69139226  0.09696601  0.66190914    -0.00300
C1118       C  0.65450373  0.05090616  0.65907302    -0.12200
C1119       C  0.64473521  0.03151907  0.64279812     0.01900
C1120       C  0.67169648  0.05878144  0.62895128    -0.00400
C1121       C  0.70999122  0.10398387  0.63188983    -0.12100
C1122       C  0.72023442  0.12308904  0.64822142     0.01800
H1123       H  0.63176630  0.03083458  0.66951393     0.14800
H1124       H  0.73136742  0.12485404  0.62130568     0.14800
C1125       C  0.75808761  0.17075066  0.65035851     0.36400
C1126       C  0.60476023  0.98511161  0.64045833     0.36300
N1127       N  0.78840771  0.20896884  0.65206962    -0.43900
N1128       N  0.57267071  0.94797481  0.63854206    -0.43900
C1129       C  0.77216452  0.96464994  0.10532842    -0.00300
C1130       C  0.72564204  0.93009120  0.10872347    -0.12200
C1131       C  0.70795874  0.88363393  0.10385232     0.01900
C1132       C  0.73738028  0.87045202  0.09545430    -0.00400
C1133       C  0.78429494  0.90528447  0.09209711    -0.12100
C1134       C  0.80183145  0.95209493  0.09698887     0.01800
H1135       H  0.70264855  0.93963485  0.11516642     0.14800
H1136       H  0.80732764  0.89600482  0.08556804     0.14800
C1137       C  0.85059164  0.98599555  0.09397711     0.36400
C1138       C  0.65878238  0.85123799  0.10695854     0.36300
N1139       N  0.88974378  0.01312496  0.09163130    -0.43900
N1140       N  0.61934354  0.82554163  0.10944610    -0.43900
C1141       C  0.82891322  0.75153403  0.08075674    -0.00300
C1142       C  0.86798573  0.75578002  0.07214880    -0.12200
C1143       C  0.91008585  0.76909450  0.08087084     0.01900
C1144       C  0.91304683  0.77764137  0.09852698    -0.00400
C1145       C  0.87399395  0.77388674  0.10696786    -0.12100
C1146       C  0.83258779  0.76181099  0.09823256     0.01800
H1147       H  0.86541784  0.74810412  0.05872158     0.14800
H1148       H  0.87613130  0.78129972  0.12041860     0.14800
C1149       C  0.79487242  0.76203586  0.10739958     0.36400
C1150       C  0.94896703  0.77175866  0.07158482     0.36300
N1151       N  0.76526741  0.76321031  0.11479656    -0.43900
N1152       N  0.98013929  0.77386898  0.06413975    -0.43900
C1153       C  0.69145516  0.63648017  0.16031982    -0.00300
C1154       C  0.65371381  0.64353650  0.15680231    -0.12200
C1155       C  0.64511010  0.65341267  0.14042745     0.01900
C1156       C  0.67494923  0.65698183  0.12701824    -0.00400
C1157       C  0.71360683  0.65132639  0.13053417    -0.12100
C1158       C  0.72219760  0.64136264  0.14704390     0.01800
H1159       H  0.62959282  0.63958542  0.16685760     0.14800
H1160       H  0.73706209  0.65453549  0.12034466     0.14800
C1161       C  0.76105199  0.63377438  0.14978599     0.36400
C1162       C  0.60349345  0.65646397  0.13759454     0.36300
N1163       N  0.79222631  0.62767843  0.15194568    -0.43900
N1164       N  0.57002141  0.65860968  0.13529510    -0.43900
C1165       C  0.84455706  0.63303309  0.92503236    -0.00300
C1166       C  0.83571927  0.62646821  0.94241818    -0.12200
C1167       C  0.79083406  0.61175832  0.94877189     0.01900
C1168       C  0.75434188  0.60521360  0.93760555    -0.00400
C1169       C  0.76291234  0.60952122  0.92011112    -0.12100
C1170       C  0.80749582  0.62321289  0.91376104     0.01800
H1171       H  0.86406097  0.63333099  0.95104154     0.14800
H1172       H  0.73537447  0.60444986  0.91137997     0.14800
C1173       C  0.81493885  0.63003447  0.89569094     0.36400
C1174       C  0.78325025  0.60301521  0.96674943     0.36300
N1175       N  0.82043718  0.63533012  0.88120020    -0.43900
N1176       N  0.77717905  0.59573535  0.98114445    -0.43900
C1177       C  0.66808995  0.63247155  0.98171499    -0.00300
C1178       C  0.70636575  0.67702527  0.98544301    -0.12200
C1179       C  0.71433148  0.69507661  0.00189563     0.01900
C1180       C  0.68431520  0.66778204  0.01521875    -0.00400
C1181       C  0.64524501  0.62364834  0.01142849    -0.12100
C1182       C  0.63657497  0.60616430  0.99480417     0.01800
H1183       H  0.73087038  0.69748419  0.97546604     0.14800
H1184       H  0.62131878  0.60280176  0.02148405     0.14800
C1185       C  0.59640487  0.56041259  0.99166933     0.36400
C1186       C  0.75479332  0.74083485  0.00482494     0.36300
N1187       N  0.56407006  0.52383833  0.98912141    -0.43900
N1188       N  0.78712593  0.77758007  0.00713176    -0.43900
C1189       C  0.26960897  0.46740502  0.03758973    -0.00300
C1190       C  0.23079391  0.43755944  0.02737814    -0.12200
C1191       C  0.18486736  0.42347943  0.03217176     0.01900
C1192       C  0.17637657  0.44005344  0.04741235    -0.00400
C1193       C  0.21500426  0.47169368  0.05727053    -0.12100
C1194       C  0.26113690  0.48498621  0.05267139     0.01800
H1195       H  0.23583788  0.42351735  0.01569342     0.14800
H1196       H  0.20908390  0.48429970  0.06915294     0.14800
C1197       C  0.29831192  0.51566086  0.06398797     0.36400
C1198       C  0.14731619  0.39110018  0.02128131     0.36300
N1199       N  0.32745864  0.54003714  0.07332299    -0.43900
N1200       N  0.11747785  0.36488947  0.01253652    -0.43900
C1201       C  0.44046335  0.52810862  0.04729137    -0.00300
C1202       C  0.44336753  0.56039419  0.05949031    -0.12200
C1203       C  0.48481271  0.58842207  0.06861676     0.01900
C1204       C  0.52537075  0.58513258  0.06548961    -0.00400
C1205       C  0.52123662  0.55037950  0.05416598    -0.12100
C1206       C  0.47962784  0.52203131  0.04522250     0.01800
H1207       H  0.41370792  0.56527253  0.06147625     0.14800
H1208       H  0.55118904  0.54612905  0.05178928     0.14800
C1209       C  0.47859124  0.48691244  0.03411253     0.36400
C1210       C  0.48440859  0.62081322  0.08076938     0.36300
N1211       N  0.47845158  0.45889746  0.02531664    -0.43900
N1212       N  0.48386142  0.64659557  0.09053328    -0.43900
C1213       C  0.27689230  0.20769804  0.88103565    -0.00300
C1214       C  0.25438561  0.16912480  0.89213001    -0.12200
C1215       C  0.23766697  0.12320296  0.88650498     0.01900
C1216       C  0.24313306  0.11503636  0.86929826    -0.00400
C1217       C  0.26268152  0.15364014  0.85802348    -0.12100
C1218       C  0.27960959  0.19948373  0.86371678     0.01800
H1219       H  0.25190199  0.17499525  0.90550100     0.14800
H1220       H  0.26590736  0.14838479  0.84466113     0.14800
C1221       C  0.29925690  0.23732691  0.85149656     0.36400
C1222       C  0.21714499  0.08598834  0.89894701     0.36300
N1223       N  0.31483144  0.26762503  0.84169823    -0.43900
N1224       N  0.20069670  0.05633061  0.90898114    -0.43900
C1225       C  0.58512559  0.54517093  0.92944242    -0.00300
C1226       C  0.57992181  0.50748305  0.91957966    -0.12200
C1227       C  0.53881573  0.47916371  0.91035943     0.01900
C1228       C  0.50136313  0.48855982  0.91060572    -0.00400
C1229       C  0.50789898  0.52810437  0.91974004    -0.12100
C1230       C  0.54896168  0.55612062  0.92907593     0.01800
H1231       H  0.60751088  0.49880717  0.91957605     0.14800
H1232       H  0.48025511  0.53666941  0.92000621     0.14800
C1233       C  0.55323490  0.59633491  0.93789242     0.36400
C1234       C  0.53573274  0.43940248  0.90158197     0.36300
N1235       N  0.55665193  0.62863654  0.94490337    -0.43900
N1236       N  0.53346167  0.40749900  0.89464650    -0.43900
C1237       C  0.34640796  0.42013205  0.95931481    -0.00300
C1238       C  0.35996202  0.39993601  0.97226433    -0.12200
C1239       C  0.36845259  0.41784334  0.98879136     0.01900
C1240       C  0.36361114  0.45679035  0.99260294    -0.00400
C1241       C  0.35102989  0.47758584  0.97971350    -0.12100
C1242       C  0.34261576  0.45996705  0.96320455     0.01800
H1243       H  0.36342891  0.36966660  0.96954924     0.14800
H1244       H  0.34617936  0.50689580  0.98272941     0.14800
C1245       C  0.32794207  0.48236224  0.95086337     0.36400
C1246       C  0.37888241  0.39369224  0.00181157     0.36300
N1247       N  0.31623271  0.50047450  0.94103218    -0.43900
N1248       N  0.38687188  0.37389202  0.01219276    -0.43900
C1249       C  0.07435184  0.53622889  0.76175502    -0.00300
C1250       C  0.10516846  0.57430491  0.75136914    -0.12200
C1251       C  0.12169877  0.62095556  0.75618331     0.01900
C1252       C  0.10685372  0.63062134  0.77167248    -0.00400
C1253       C  0.07910779  0.59248928  0.78260618    -0.12100
C1254       C  0.06325622  0.54602607  0.77790634     0.01800
H1255       H  0.11519385  0.56778305  0.73905724     0.14800
H1256       H  0.06857713  0.59853315  0.79489298     0.14800
C1257       C  0.03582884  0.50935671  0.79002467     0.36400
C1258       C  0.15364720  0.65759950  0.74485062     0.36300
N1259       N  0.01408681  0.48004964  0.79978163    -0.43900
N1260       N  0.17951926  0.68660771  0.73570173    -0.43900
C1261       C  0.85536897  0.25152226  0.73226255    -0.00300
C1262       C  0.85239755  0.21609475  0.72150510    -0.12200
C1263       C  0.81210977  0.18755056  0.71188220     0.01900
C1264       C  0.77259973  0.19354504  0.71279241    -0.00400
C1265       C  0.77450592  0.22717835  0.72420193    -0.12100
C1266       C  0.81496509  0.25595521  0.73378585     0.01800
H1267       H  0.88235527  0.21128487  0.72014472     0.14800
H1268       H  0.74461135  0.23217457  0.72533252     0.14800
C1269       C  0.81388112  0.29051088  0.74462335     0.36400
C1270       C  0.81283491  0.15235681  0.70128328     0.36300
N1271       N  0.81268816  0.31812789  0.75326462    -0.43900
N1272       N  0.81368976  0.12426649  0.69280967    -0.43900
C1273       C  0.00659019  0.32095758  0.68445854    -0.00300
C1274       C  0.98198969  0.33176922  0.67239488    -0.12200
C1275       C  0.97233008  0.31148986  0.65621293     0.01900
C1276       C  0.98775749  0.28015665  0.65189776    -0.00400
C1277       C  0.01076353  0.26810382  0.66408968    -0.12100
C1278       C  0.02011145  0.28786034  0.68023595     0.01800
H1279       H  0.97056555  0.35633772  0.67557017     0.14800
H1280       H  0.02326773  0.24446425  0.66071155     0.14800
C1281       C  0.04609439  0.27542803  0.69177859     0.36400
C1282       C  0.94913058  0.32538837  0.64396745     0.36300
N1283       N  0.06690570  0.26536385  0.70098315    -0.43900
N1284       N  0.93053919  0.33644622  0.63411526    -0.43900
C1285       C  0.00856795  0.32653714  0.79538380    -0.00300
C1286       C  0.98826251  0.33622695  0.80928048    -0.12200
C1287       C  0.99567633  0.32618825  0.82586669     0.01900
C1288       C  0.02455117  0.30679834  0.82888536    -0.00400
C1289       C  0.04709608  0.29962202  0.81522798    -0.12100
C1290       C  0.03926864  0.30898884  0.79858449     0.01800
H1291       H  0.96542296  0.35047904  0.80719122     0.14800
H1292       H  0.06913146  0.28450714  0.81749607     0.14800
C1293       C  0.06315577  0.29977003  0.78517081     0.36400
C1294       C  0.97313974  0.33594567  0.83964112     0.36300
N1295       N  0.08222809  0.29187346  0.77453564    -0.43900
N1296       N  0.95523137  0.34383077  0.85070802    -0.43900
C1297       C  0.10933622  0.29676590  0.87909915    -0.00300
C1298       C  0.14393511  0.34430397  0.87779211    -0.12200
C1299       C  0.18639274  0.36279547  0.88663726     0.01900
C1300       C  0.19594010  0.33318046  0.89691207    -0.00400
C1301       C  0.16054880  0.28579467  0.89860179    -0.12100
C1302       C  0.11767777  0.26757250  0.88995390     0.01800
H1303       H  0.13761524  0.36750622  0.86989796     0.14800
H1304       H  0.16683611  0.26222050  0.90627299     0.14800
C1305       C  0.08404327  0.21826751  0.89193223     0.36400
C1306       C  0.21901628  0.41247193  0.88483538     0.36300
N1307       N  0.05747054  0.17870120  0.89371251    -0.43900
N1308       N  0.24489985  0.45232250  0.88336399    -0.43900
C1309       C  0.16101488  0.41720297  0.74515290    -0.00300
C1310       C  0.17148571  0.38483876  0.75265099    -0.12200
C1311       C  0.21253842  0.39950533  0.76209770     0.01900
C1312       C  0.24520668  0.44784438  0.76407020    -0.00400
C1313       C  0.23667798  0.48028103  0.75556587    -0.12100
C1314       C  0.19509670  0.46563448  0.74631730     0.01800
H1315       H  0.14680623  0.34759985  0.75149512     0.14800
H1316       H  0.26166380  0.51747929  0.75676586     0.14800
C1317       C  0.18762321  0.50150650  0.73903482     0.36400
C1318       C  0.22028358  0.36389732  0.76946695     0.36300
N1319       N  0.18190721  0.53047342  0.73323196    -0.43900
N1320       N  0.22634376  0.33524524  0.77535460    -0.43900
C1321       C  0.32401746  0.43487344  0.81578208    -0.00300
C1322       C  0.35820521  0.42188232  0.81770840    -0.12200
C1323       C  0.36950400  0.41200067  0.83368639     0.01900
C1324       C  0.34661130  0.41556426  0.84821975    -0.00400
C1325       C  0.31088667  0.42658710  0.84616850    -0.12100
C1326       C  0.29937129  0.43607169  0.83011364     0.01800
H1327       H  0.37790919  0.42183755  0.80672372     0.14800
H1328       H  0.29237254  0.42852409  0.85718016     0.14800
C1329       C  0.26460969  0.45014782  0.82881169     0.36400
C1330       C  0.40693953  0.40157577  0.83483083     0.36300
N1331       N  0.23677569  0.46147374  0.82776822    -0.43900
N1332       N  0.43699131  0.39329264  0.83571318    -0.43900
C1333       C  0.57386012  0.54442811  0.71433523    -0.00300
C1334       C  0.56380471  0.50568706  0.72471671    -0.12200
C1335       C  0.53499225  0.45955583  0.71913956     0.01900
C1336       C  0.51560129  0.45120216  0.70266008    -0.00400
C1337       C  0.52814200  0.49026827  0.69198319    -0.12100
C1338       C  0.55659488  0.53628433  0.69764369     0.01800
H1339       H  0.57696674  0.51135945  0.73760298     0.14800
H1340       H  0.51478679  0.48527128  0.67915042     0.14800
C1341       C  0.56750851  0.57435361  0.68601395     0.36400
C1342       C  0.52561704  0.42215917  0.73086669     0.36300
N1343       N  0.57627817  0.60490315  0.67672311    -0.43900
N1344       N  0.51838115  0.39259941  0.74043029    -0.43900
C1345       C  0.50650357  0.61762730  0.76177536    -0.00300
C1346       C  0.50048532  0.60345409  0.77874167    -0.12200
C1347       C  0.45571671  0.57435227  0.78549938     0.01900
C1348       C  0.41534060  0.55724809  0.77493516    -0.00400
C1349       C  0.42137392  0.57462541  0.75833293    -0.12100
C1350       C  0.46615601  0.60455043  0.75171457     0.01800
H1351       H  0.53107377  0.61433117  0.78669222     0.13000
H1352       H  0.39117928  0.56300262  0.75012612     0.14800
C1353       C  0.46934137  0.61815011  0.73413395     0.36400
C1354       C  0.45320607  0.56247169  0.80326138     0.36300
N1355       N  0.47182604  0.62905784  0.72005481    -0.43900
N1356       N  0.45147130  0.55307554  0.81748536    -0.43900
C1357       C  0.90718531  0.76549898  0.88055271    -0.00300
C1358       C  0.89785410  0.79371215  0.89132983    -0.12200
C1359       C  0.86405665  0.80592863  0.88720946     0.01900
C1360       C  0.83909139  0.79040493  0.87177980    -0.00400
C1361       C  0.85035862  0.76397383  0.86070679    -0.12100
C1362       C  0.88363787  0.75141955  0.86492861     0.01800
H1363       H  0.91543636  0.80447852  0.90348452     0.14800
H1364       H  0.83245169  0.75190149  0.84867209     0.14800
C1365       C  0.89265674  0.72385413  0.85297198     0.36400
C1366       C  0.85543198  0.83337990  0.89931331     0.36300
N1367       N  0.89975200  0.70165014  0.84341571    -0.43900
N1368       N  0.84867512  0.85524019  0.90913860    -0.43900
C1369       C  0.71846275  0.75168286  0.79331055    -0.00300
C1370       C  0.68262508  0.73155406  0.80559465    -0.12200
C1371       C  0.69081992  0.74709908  0.82240841     0.01900
C1372       C  0.73540801  0.78375810  0.82713285    -0.00400
C1373       C  0.77080249  0.80480083  0.81485632    -0.12100
C1374       C  0.76289218  0.78926424  0.79809015     0.01800
H1375       H  0.64823480  0.70290452  0.80214736     0.14800
H1376       H  0.80553326  0.83233269  0.81858602     0.14800
C1377       C  0.80198572  0.81071884  0.78646135     0.36400
C1378       C  0.65411161  0.72248855  0.83474869     0.36300
N1379       N  0.83345821  0.82793583  0.77720850    -0.43900
N1380       N  0.62450285  0.70209302  0.84452498    -0.43900
C1381       C  0.44095294  0.97333569  0.76108222    -0.00300
C1382       C  0.45786465  0.98530472  0.77765129    -0.12200
C1383       C  0.48840979  0.97181129  0.78448262     0.01900
C1384       C  0.50368961  0.94620667  0.77444536    -0.00400
C1385       C  0.48407995  0.93153911  0.75829672    -0.12100
C1386       C  0.45316768  0.94463629  0.75156382     0.01800
H1387       H  0.44810415  0.00644910  0.78521227     0.14800
H1388       H  0.49435335  0.91123863  0.75049924     0.14800
C1389       C  0.43746308  0.93052492  0.73437248     0.36400
C1390       C  0.50348676  0.98580137  0.80174290     0.36300
N1391       N  0.42500342  0.91919141  0.72059459    -0.43900
N1392       N  0.51522251  0.99719671  0.81557905    -0.43900
C1393       C  0.63897713  0.82675222  0.74519497    -0.00300
C1394       C  0.59153831  0.81481317  0.74484597    -0.12200
C1395       C  0.57535690  0.84017848  0.75413635     0.01900
C1396       C  0.60678717  0.87876830  0.76422705    -0.00400
C1397       C  0.65442093  0.89198217  0.76402824    -0.12100
C1398       C  0.67074715  0.86700667  0.75461355     0.01800
H1399       H  0.56628542  0.78413630  0.73787417     0.14800
H1400       H  0.67926713  0.92214593  0.77132849     0.14800
C1401       C  0.72044929  0.88383989  0.75503607     0.36400
C1402       C  0.52573505  0.82380293  0.75381313     0.36300
N1403       N  0.76032568  0.89754662  0.75540835    -0.43900
N1404       N  0.48594239  0.81055030  0.75352547    -0.43900
C1405       C  0.77916131  0.87612284  0.60409497    -0.00300
C1406       C  0.78119377  0.88503656  0.58660177    -0.12200
C1407       C  0.76635816  0.91489425  0.58001074     0.01900
C1408       C  0.74890503  0.93618336  0.59102739    -0.00400
C1409       C  0.74938696  0.92960951  0.60846963    -0.12100
C1410       C  0.76504480  0.90072271  0.61512237     0.01800
H1411       H  0.79217674  0.86695236  0.57795988     0.14800
H1412       H  0.73667069  0.94658085  0.61693491     0.14800
C1413       C  0.76582327  0.89724469  0.63335563     0.36400
C1414       C  0.76611473  0.92029276  0.56184332     0.36300
N1415       N  0.76629819  0.89456192  0.64796737    -0.43900
N1416       N  0.76593839  0.92458325  0.54729116    -0.43900
C1417       C  0.75292013  0.76380196  0.64854845    -0.00300
C1418       C  0.70652755  0.75319629  0.65122479    -0.12200
C1419       C  0.68740940  0.74591928  0.66753327     0.01900
C1420       C  0.71503315  0.74956687  0.68176071    -0.00400
C1421       C  0.76113234  0.75885576  0.67904755    -0.12100
C1422       C  0.78012271  0.76583999  0.66263066     0.01800
H1423       H  0.68566706  0.75256462  0.64049946     0.14800
H1424       H  0.78255604  0.76105333  0.68979316     0.14800
C1425       C  0.82840630  0.77800734  0.66066487     0.36400
C1426       C  0.64031161  0.73766732  0.66927804     0.36300
N1427       N  0.86713670  0.78782424  0.65908230    -0.43900
N1428       N  0.60259732  0.73111429  0.67067295    -0.43900
C1429       C  0.93011814  0.46109560  0.71667744    -0.00300
C1430       C  0.91281102  0.48029773  0.72854600    -0.12200
C1431       C  0.89825308  0.51172179  0.72365612     0.01900
C1432       C  0.89920453  0.52335432  0.70634471    -0.00400
C1433       C  0.91356292  0.50135309  0.69438042    -0.12100
C1434       C  0.92961709  0.47120475  0.69938753     0.01800
H1435       H  0.91370871  0.47329308  0.74194704     0.14800
H1436       H  0.91385316  0.50884311  0.68097894     0.14800
C1437       C  0.94589913  0.45168519  0.68656247     0.36400
C1438       C  0.88630337  0.53388057  0.73691111     0.36300
N1439       N  0.95905380  0.43625933  0.67624266    -0.43900
N1440       N  0.87725687  0.55173197  0.74766528    -0.43900
C1441       C  0.78522871  0.66782813  0.73155425    -0.00300
C1442       C  0.77436235  0.62115022  0.73416615    -0.12200
C1443       C  0.79914208  0.60271611  0.72584782     0.01900
C1444       C  0.83596065  0.63107243  0.71449499    -0.00400
C1445       C  0.84843812  0.67822709  0.71253876    -0.12100
C1446       C  0.82411833  0.69686618  0.72094941     0.01800
H1447       H  0.74495951  0.59807792  0.74218855     0.14800
H1448       H  0.87727392  0.70077647  0.70419418     0.14800
C1449       C  0.83997631  0.74587568  0.71807876     0.36400
C1450       C  0.78374919  0.55371930  0.72842080     0.36300
N1451       N  0.85293469  0.78517547  0.71572170    -0.43900
N1452       N  0.77129447  0.51442895  0.73051231    -0.43900
C1453       C  0.93640476  0.20301953  0.87509181    -0.00300
C1454       C  0.90676111  0.22113388  0.87776159    -0.12200
C1455       C  0.86035771  0.19215957  0.88280496     0.01900
C1456       C  0.84234308  0.14335223  0.88500059    -0.00400
C1457       C  0.87255265  0.12539801  0.88269516    -0.12100
C1458       C  0.91929430  0.15482680  0.87765043     0.01800
H1459       H  0.92000267  0.25828905  0.87579063     0.14800
H1460       H  0.85945609  0.08827125  0.88456964     0.14800
C1461       C  0.94810309  0.13442535  0.87427320     0.36400
C1462       C  0.83300544  0.21427787  0.88623511     0.36300
N1463       N  0.97088896  0.11776527  0.87144095    -0.43900
N1464       N  0.81138559  0.23226973  0.88897872    -0.43900
C1465       C  0.78035075  0.19963943  0.93051791    -0.00300
C1466       C  0.76470094  0.23221766  0.93036260    -0.12200
C1467       C  0.79528845  0.27965521  0.93419869     0.01900
C1468       C  0.84247817  0.29522069  0.93807420    -0.00400
C1469       C  0.85812906  0.26298551  0.93831519    -0.12100
C1470       C  0.82800021  0.21580644  0.93452988     0.01800
H1471       H  0.72853901  0.22067255  0.92719567     0.14800
H1472       H  0.89433885  0.27485862  0.94159380     0.14800
C1473       C  0.84809165  0.18575724  0.93417726     0.36400
C1474       C  0.77708014  0.31118147  0.93484114     0.36300
N1475       N  0.86433008  0.16184306  0.93386828    -0.43900
N1476       N  0.76239077  0.33638860  0.93545346    -0.43900
C1477       C  0.73364983  0.85544018  0.88181512    -0.00300
C1478       C  0.76768696  0.89440125  0.89080444    -0.12200
C1479       C  0.75668508  0.92520267  0.89906494     0.01900
C1480       C  0.71012580  0.91702748  0.89869957    -0.00400
C1481       C  0.67559206  0.87633602  0.89048018    -0.12100
C1482       C  0.68685403  0.84581935  0.88212568     0.01800
H1483       H  0.80379084  0.90229973  0.89066130     0.14800
H1484       H  0.63958876  0.86868931  0.89021586     0.14800
C1485       C  0.64936839  0.80449200  0.87424978     0.36400
C1486       C  0.79489642  0.96619001  0.90687451     0.36300
N1487       N  0.61879446  0.77136882  0.86812519    -0.43900
N1488       N  0.82573346  0.99904406  0.91304553    -0.43900
C1489       C  0.62183791  0.97081434  0.81629264    -0.00300
C1490       C  0.62731276  0.01481456  0.82024747    -0.12200
C1491       C  0.63539795  0.03159281  0.83686135     0.01900
C1492       C  0.63802325  0.00403237  0.85002748    -0.00400
C1493       C  0.63526022  0.96121470  0.84597084    -0.12100
C1494       C  0.62771292  0.94469148  0.82922780     0.01800
H1495       H  0.62285923  0.03522260  0.81038974     0.14800
H1496       H  0.63850641  0.94036280  0.85594905     0.14800
C1497       C  0.62353087  0.89981304  0.82584939     0.36400
C1498       C  0.63743795  0.07559096  0.84016783     0.36300
N1499       N  0.62042205  0.86394987  0.82309787    -0.43900
N1500       N  0.63894626  0.11078259  0.84280072    -0.43900
C1501       C  0.44356960  0.21304960  0.94017854    -0.00300
C1502       C  0.44868849  0.22441654  0.92288107    -0.12200
C1503       C  0.43565439  0.25555147  0.91628907     0.01900
C1504       C  0.41740203  0.27660489  0.92713978    -0.00400
C1505       C  0.41491524  0.26758985  0.94454882    -0.12100
C1506       C  0.42822539  0.23665306  0.95118368     0.01800
H1507       H  0.46051491  0.20703274  0.91425822     0.14800
H1508       H  0.40151187  0.28399911  0.95296335     0.14800
C1509       C  0.42527033  0.22997257  0.96933551     0.36400
C1510       C  0.43752832  0.26171091  0.89811310     0.36300
N1511       N  0.42276255  0.22470344  0.98387979    -0.43900
N1512       N  0.43885813  0.26641113  0.88355187    -0.43900
C1513       C  0.50634569  0.10556146  0.93159423    -0.00300
C1514       C  0.49524387  0.05865325  0.93334478    -0.12200
C1515       C  0.52027715  0.04121024  0.92463906     0.01900
C1516       C  0.55832703  0.07118113  0.91391952    -0.00400
C1517       C  0.56787175  0.11754181  0.91158283    -0.12100
C1518       C  0.54260152  0.13482897  0.92020089     0.01800
H1519       H  0.46683152  0.03527418  0.94168626     0.14800
H1520       H  0.59661846  0.14136341  0.90345397     0.14800
C1521       C  0.55675693  0.18356795  0.91769883     0.36400
C1522       C  0.50600175  0.99248806  0.92725693     0.36300
N1523       N  0.56825660  0.22264259  0.91563105    -0.43900
N1524       N  0.49419550  0.95336183  0.92938990    -0.43900
C1525       C  0.60219199  0.79532829  0.04880838    -0.00300
C1526       C  0.58107160  0.81099550  0.06052928    -0.12200
C1527       C  0.56613169  0.84215268  0.05577317     0.01900
C1528       C  0.57258545  0.85860625  0.03889230    -0.00400
C1529       C  0.58963239  0.83908679  0.02688597    -0.12100
C1530       C  0.60438015  0.80783883  0.03169146     0.01800
H1531       H  0.57850549  0.80091382  0.07374980     0.14800
H1532       H  0.59273782  0.84906602  0.01365019     0.14800
C1533       C  0.62124275  0.78891607  0.01884018     0.36400
C1534       C  0.54574928  0.85705254  0.06872779     0.36300
N1535       N  0.63437381  0.77343719  0.00852936    -0.43900
N1536       N  0.52898341  0.86786130  0.07933995    -0.43900
C1537       C  0.59705038  0.97031928  0.99468971    -0.00300
C1538       C  0.64215758  0.97787918  0.99138363    -0.12200
C1539       C  0.66045474  0.98631301  0.97495999     0.01900
C1540       C  0.63341043  0.98733712  0.96129502    -0.00400
C1541       C  0.58856048  0.98069200  0.96461260    -0.12100
C1542       C  0.57031434  0.97239267  0.98115321     0.01800
H1543       H  0.66267761  0.97552169  0.00167844     0.14800
H1544       H  0.56769007  0.98196776  0.95424823     0.14800
C1545       C  0.52327784  0.96349952  0.98375799     0.36400
C1546       C  0.70593910  0.99100112  0.97241189     0.36300
N1547       N  0.48555229  0.95632292  0.98586782    -0.43900
N1548       N  0.74230765  0.99461578  0.97036411    -0.43900
C1549       C  0.85537677  0.10409137  0.36921587    -0.00300
C1550       C  0.85535834  0.11176565  0.38662345    -0.12200
C1551       C  0.88109529  0.15694529  0.39331225     0.01900
C1552       C  0.90864167  0.19580803  0.38250700    -0.00400
C1553       C  0.91045597  0.18795695  0.36519379    -0.12100
C1554       C  0.88446482  0.14261616  0.35849205     0.01800
H1555       H  0.83280323  0.08282392  0.39494076     0.14800
H1556       H  0.93198862  0.21731522  0.35687780     0.14800
C1557       C  0.88842986  0.13680494  0.34055520     0.36400
C1558       C  0.87531681  0.16256073  0.41114596     0.36300
N1559       N  0.89164180  0.13226024  0.32617878    -0.43900
N1560       N  0.87046505  0.16698195  0.42540610    -0.43900
C1561       C  0.84185112  0.26891767  0.42868287    -0.00300
C1562       C  0.80527720  0.23976099  0.41769071    -0.12200
C1563       C  0.75923617  0.21310040  0.42344696     0.01900
C1564       C  0.74881661  0.21599242  0.44059357    -0.00400
C1565       C  0.78528031  0.24687534  0.45144644    -0.12100
C1566       C  0.83162492  0.27313709  0.44564568     0.01800
H1567       H  0.81309125  0.23606357  0.40462571     0.14800
H1568       H  0.77773666  0.24974705  0.46461191     0.14800
C1569       C  0.86775367  0.30456617  0.45717296     0.36400
C1570       C  0.72458957  0.18049774  0.41172121     0.36300
N1571       N  0.89670051  0.32993220  0.46638285    -0.43900
N1572       N  0.69702330  0.15423471  0.40231264    -0.43900
C1573       C  0.12543493  0.55978701  0.27458092    -0.00300
C1574       C  0.12930200  0.57016607  0.25719185    -0.12200
C1575       C  0.11359843  0.59916354  0.25047852     0.01900
C1576       C  0.09248695  0.61756255  0.26118718    -0.00400
C1577       C  0.09149584  0.61001139  0.27863955    -0.12100
C1578       C  0.10893106  0.58265701  0.28546971     0.01800
H1579       H  0.14267973  0.55399924  0.24865522     0.14800
H1580       H  0.07663961  0.62524837  0.28695786     0.14800
C1581       C  0.10954795  0.57928778  0.30371329     0.36400
C1582       C  0.11700034  0.60702045  0.23239552     0.36300
N1583       N  0.11022207  0.57690792  0.31833215    -0.43900
N1584       N  0.12016062  0.61353854  0.21791884    -0.43900
C1585       C  0.05541815  0.41586579  0.35039571    -0.00300
C1586       C  0.10027461  0.42240648  0.34723144    -0.12200
C1587       C  0.12093134  0.43572390  0.33114946     0.01900
C1588       C  0.09684954  0.44347986  0.31796424    -0.00400
C1589       C  0.05187813  0.43646775  0.32108353    -0.12100
C1590       C  0.03097908  0.42263397  0.33704983     0.01800
H1591       H  0.11937205  0.41725322  0.35738728     0.14800
H1592       H  0.03337560  0.44297137  0.31105261     0.14800
C1593       C  0.98575127  0.41853000  0.33959098     0.36400
C1594       C  0.16776767  0.44378938  0.32881287     0.36300
N1595       N  0.94959577  0.41542421  0.34161686    -0.43900
N1596       N  0.20534710  0.45028301  0.32699925    -0.43900
C1597       C  0.24962975  0.19470016  0.37600568    -0.00300
C1598       C  0.21577324  0.14812063  0.37985009    -0.12200
C1599       C  0.22919183  0.11520820  0.38424630     0.01900
C1600       C  0.27736239  0.12895106  0.38462481    -0.00400
C1601       C  0.31083222  0.17593365  0.38097893    -0.12100
C1602       C  0.29747438  0.20859936  0.37685202     0.01800
H1603       H  0.17888440  0.13716890  0.37895631     0.14800
H1604       H  0.34795925  0.18783401  0.38184054     0.14800
C1605       C  0.33372334  0.25674486  0.37397545     0.36400
C1606       C  0.19288375  0.06762425  0.38789715     0.36300
N1607       N  0.36273758  0.29535257  0.37178647    -0.43900
N1608       N  0.16376922  0.02951613  0.39086230    -0.43900
C1609       C  0.17199358  0.28970206  0.38052572    -0.00300
C1610       C  0.14000318  0.29752992  0.37145889    -0.12200
C1611       C  0.11102585  0.31089301  0.37968769     0.01900
C1612       C  0.11468056  0.31865551  0.39734780    -0.00400
C1613       C  0.14625412  0.31058018  0.40658110    -0.12100
C1614       C  0.17461657  0.29593588  0.39836389     0.01800
H1615       H  0.13645376  0.29168775  0.35789841     0.14800
H1616       H  0.14887360  0.31585000  0.42016859     0.14800
C1617       C  0.20692727  0.28888122  0.40850539     0.36400
C1618       C  0.07550131  0.31330158  0.36980902     0.36300
N1619       N  0.23276133  0.28315484  0.41665583    -0.43900
N1620       N  0.04647571  0.31391970  0.36180551    -0.43900
C1621       C  0.48259948  0.62582358  0.27341668    -0.00300
C1622       C  0.47555315  0.61871721  0.25593121    -0.12200
C1623       C  0.44870480  0.57353162  0.24932434     0.01900
C1624       C  0.42788200  0.53418389  0.26035045    -0.00400
C1625       C  0.43206751  0.54142188  0.27785245    -0.12100
C1626       C  0.45844545  0.58668700  0.28448225     0.01800
H1627       H  0.49350380  0.64814164  0.24728877     0.14800
H1628       H  0.41532070  0.51153262  0.28636753     0.14800
C1629       C  0.46015919  0.59145149  0.30270059     0.36400
C1630       C  0.44680548  0.56859220  0.23111327     0.36300
N1631       N  0.46140571  0.59503479  0.31729770    -0.43900
N1632       N  0.44549766  0.56480292  0.21652577    -0.43900
C1633       C  0.50471330  0.46647661  0.21566199    -0.00300
C1634       C  0.54284026  0.47761733  0.22652688    -0.12200
C1635       C  0.58933637  0.50852163  0.22158075     0.01900
C1636       C  0.59890430  0.52918385  0.20528396    -0.00400
C1637       C  0.56068606  0.51581617  0.19412963    -0.12100
C1638       C  0.51431880  0.48515014  0.19910439     0.01800
H1639       H  0.53635337  0.46364873  0.23932135     0.14800
H1640       H  0.56659982  0.52986244  0.18136076     0.14800
C1641       C  0.47756124  0.47368251  0.18686351     0.36400
C1642       C  0.62580833  0.51874517  0.23376550     0.36300
N1643       N  0.44825995  0.46461263  0.17701043    -0.43900
N1644       N  0.65461663  0.52638691  0.24367200    -0.43900
C1645       C  0.18377331  0.44802356  0.26606716    -0.00300
C1646       C  0.16967403  0.40036263  0.26809256    -0.12200
C1647       C  0.19082284  0.37950151  0.25896935     0.01900
C1648       C  0.22792149  0.40652750  0.24746589    -0.00400
C1649       C  0.24084627  0.45389472  0.24499195    -0.12100
C1650       C  0.21936364  0.47464889  0.25406636     0.01800
H1651       H  0.14176885  0.37896859  0.27693710     0.14800
H1652       H  0.26933714  0.47565027  0.23641228     0.14800
C1653       C  0.23652072  0.52397714  0.25137978     0.36400
C1654       C  0.17344623  0.33021373  0.26188486     0.36300
N1655       N  0.25032513  0.56351368  0.24919605    -0.43900
N1656       N  0.15936165  0.29070757  0.26427180    -0.43900
C1657       C  0.25686251  0.29060758  0.32822334    -0.00300
C1658       C  0.25138580  0.25622928  0.31652942    -0.12200
C1659       C  0.27026534  0.26823821  0.30019765     0.01900
C1660       C  0.29614223  0.31583402  0.29523184    -0.00400
C1661       C  0.30167001  0.35044046  0.30689387    -0.12100
C1662       C  0.28190340  0.33820124  0.32322912     0.01800
H1663       H  0.23260181  0.21955391  0.32026494     0.14800
H1664       H  0.32110086  0.38709756  0.30318182     0.14800
C1665       C  0.28944114  0.37507782  0.33481009     0.36400
C1666       C  0.26416135  0.23098404  0.28903715     0.36300
N1667       N  0.29545018  0.40465649  0.34408947    -0.43900
N1668       N  0.25927468  0.20115612  0.28009103    -0.43900
C1669       C  0.24892124  0.87195975  0.05030240    -0.00300
C1670       C  0.24671280  0.86719596  0.03272145    -0.12200
C1671       C  0.22040804  0.82306866  0.02526506     0.01900
C1672       C  0.19414545  0.78261046  0.03559303    -0.00400
C1673       C  0.19865534  0.78743932  0.05325243    -0.12100
C1674       C  0.22567797  0.83155628  0.06065260     0.01800
H1675       H  0.26537257  0.89817644  0.02479072     0.14800
H1676       H  0.17906421  0.75709617  0.06138142     0.14800
C1677       C  0.22591863  0.83469267  0.07890712     0.36400
C1678       C  0.22151797  0.82108967  0.00700378     0.36300
N1679       N  0.22593548  0.83711177  0.09352713    -0.43900
N1680       N  0.22297696  0.82029983  0.99237008    -0.43900
C1681       C  0.17684784  0.93772379  0.09531103    -0.00300
C1682       C  0.16910002  0.92608843  0.11249338    -0.12200
C1683       C  0.12396421  0.89531677  0.11860123     0.01900
C1684       C  0.08529951  0.87421807  0.10721660    -0.00400
C1685       C  0.09304030  0.88756588  0.09010811    -0.12100
C1686       C  0.13814129  0.91887772  0.08408925     0.01800
H1687       H  0.19859003  0.94077176  0.12116387     0.14800
H1688       H  0.06412718  0.87204010  0.08120775     0.14800
C1689       C  0.14396359  0.92810240  0.06608568     0.36400
C1690       C  0.11904407  0.88663122  0.13664879     0.36300
N1691       N  0.14851477  0.93531846  0.05165581    -0.43900
N1692       N  0.11526471  0.87974704  0.15110737    -0.43900
C1693       C  0.50727165  0.96441182  0.04619637    -0.00300
C1694       C  0.47178430  0.96741504  0.03760727    -0.12200
C1695       C  0.44273716  0.98022701  0.04604426     0.01900
C1696       C  0.44946681  0.99170500  0.06345305    -0.00400
C1697       C  0.48457420  0.98825221  0.07222078    -0.12100
C1698       C  0.51349823  0.97478465  0.06374649     0.01800
H1699       H  0.46597381  0.95863738  0.02425019     0.14800
H1700       H  0.49031422  0.99740469  0.08553901     0.14800
C1701       C  0.55108380  0.97484437  0.07308492     0.36400
C1702       C  0.40476277  0.97925233  0.03663566     0.36300
N1703       N  0.58140607  0.97544228  0.08064655    -0.43900
N1704       N  0.37410674  0.97761413  0.02897787    -0.43900
C1705       C  0.38335977  0.07841106  0.01679853    -0.00300
C1706       C  0.35230822  0.07087036  0.00342205    -0.12200
C1707       C  0.36808213  0.07967708  0.98664780     0.01900
C1708       C  0.41552948  0.09545267  0.98297113    -0.00400
C1709       C  0.44599944  0.10019940  0.99612825    -0.12100
C1710       C  0.43048803  0.09207156  0.01297230     0.01800
H1711       H  0.31588983  0.05940124  0.00610099     0.14800
H1712       H  0.48256017  0.11257632  0.99332715     0.14800
C1713       C  0.46375446  0.09761967  0.02593224     0.36400
C1714       C  0.33505949  0.07280498  0.97339174     0.36300
N1715       N  0.49082108  0.10209725  0.03615537    -0.43900
N1716       N  0.30860642  0.06720420  0.96276091    -0.43900
C1717       C  0.58039404  0.10772099  0.21319285    -0.00300
C1718       C  0.57904446  0.14378147  0.22222805    -0.12200
C1719       C  0.55097560  0.16221168  0.21693733     0.01900
C1720       C  0.52348212  0.14488116  0.20212480    -0.00400
C1721       C  0.52745398  0.11106688  0.19252123    -0.12100
C1722       C  0.55507633  0.09239926  0.19786238     0.01800
H1723       H  0.59852464  0.15647411  0.23395951     0.14800
H1724       H  0.50751669  0.09751797  0.18092649     0.14800
C1725       C  0.55585189  0.05703876  0.18736586     0.36400
C1726       C  0.55107005  0.19839812  0.22714802     0.36300
N1727       N  0.55618127  0.02865470  0.17890423    -0.43900
N1728       N  0.55150975  0.22732412  0.23550933    -0.43900
C1729       C  0.41572792  0.13449251  0.15845757    -0.00300
C1730       C  0.37582692  0.08983139  0.15728148    -0.12200
C1731       C  0.36322025  0.06529001  0.14189384     0.01900
C1732       C  0.39113725  0.08570815  0.12718883    -0.00400
C1733       C  0.43015719  0.13141667  0.12844681    -0.12100
C1734       C  0.44252004  0.15564089  0.14381841     0.01800
H1735       H  0.35588191  0.07298917  0.16865654     0.14800
H1736       H  0.45191458  0.14829852  0.11744575     0.14800
C1737       C  0.48372758  0.20183384  0.14436775     0.36400
C1738       C  0.32242583  0.01879239  0.14194569     0.36300
N1739       N  0.51667393  0.23890448  0.14470649    -0.43900
N1740       N  0.28975330  0.98150563  0.14213865    -0.43900
C1741       C  0.41951138  0.21130851  0.21277238    -0.00300
C1742       C  0.37123092  0.19030117  0.21600018    -0.12200
C1743       C  0.35307118  0.21331740  0.22564040     0.01900
C1744       C  0.38338635  0.25893999  0.23206901    -0.00400
C1745       C  0.43193682  0.27898781  0.22933854    -0.12100
C1746       C  0.45001038  0.25583362  0.21977880     0.01800
H1747       H  0.34753285  0.15580140  0.21088251     0.14800
H1748       H  0.45584334  0.31415530  0.23385313     0.14800
C1749       C  0.49960955  0.28031691  0.21612013     0.36400
C1750       C  0.30322653  0.18900741  0.22884194     0.36300
N1751       N  0.53929590  0.30012952  0.21305450    -0.43900
N1752       N  0.26330264  0.16940513  0.23147306    -0.43900
C1753       C  0.17636347  0.28007732  0.10367759    -0.00300
C1754       C  0.13357549  0.24880427  0.09599224    -0.12200
C1755       C  0.10192524  0.26342615  0.09117614     0.01900
C1756       C  0.11337427  0.31059304  0.09388258    -0.00400
C1757       C  0.15656667  0.34154075  0.10157039    -0.12100
C1758       C  0.18779937  0.32688364  0.10638375     0.01800
H1759       H  0.12429443  0.21257303  0.09418838     0.14800
H1760       H  0.16685896  0.37798454  0.10352133     0.14800
C1761       C  0.23220198  0.36116368  0.11367533     0.36400
C1762       C  0.05790896  0.22890313  0.08378466     0.36300
N1763       N  0.26776517  0.38851990  0.11951089    -0.43900
N1764       N  0.02261483  0.20113314  0.07789301    -0.43900
C1765       C  0.30983063  0.15314789  0.08012757    -0.00300
C1766       C  0.26662843  0.14865058  0.07535408    -0.12200
C1767       C  0.24863798  0.17413199  0.08347239     0.01900
C1768       C  0.27361538  0.20480470  0.09698843    -0.00400
C1769       C  0.31786066  0.21126875  0.10112401    -0.12100
C1770       C  0.33630303  0.18658615  0.09283444     0.01800
H1771       H  0.24580294  0.12389035  0.06555659     0.14800
H1772       H  0.33829301  0.23567327  0.11107940     0.14800
C1773       C  0.38229487  0.19634973  0.09802393     0.36400
C1774       C  0.20341195  0.16612277  0.07809761     0.36300
N1775       N  0.41930729  0.20473066  0.10220292    -0.43900
N1776       N  0.16723380  0.15969637  0.07367409    -0.43900
C1777       C  0.26618965  0.27620106  0.15128297    -0.00300
C1778       C  0.23182448  0.25823479  0.16398576    -0.12200
C1779       C  0.24149618  0.27708194  0.18035164     0.01900
C1780       C  0.28655829  0.31534801  0.18424594    -0.00400
C1781       C  0.32115141  0.33267802  0.17147700    -0.12100
C1782       C  0.31129903  0.31351548  0.15513337     0.01800
H1783       H  0.19667588  0.23034936  0.16090959     0.14800
H1784       H  0.35595970  0.36170106  0.17418294     0.14800
C1785       C  0.34704088  0.33469443  0.14223083     0.36400
C1786       C  0.20355169  0.25785881  0.19248725     0.36300
N1787       N  0.37554555  0.35175132  0.13184369    -0.43900
N1788       N  0.17296086  0.24230138  0.20213384    -0.43900
C1789       C  0.09762183  0.85855091  0.59410201    -0.00300
C1790       C  0.11074728  0.89614357  0.58269806    -0.12200
C1791       C  0.14049184  0.94289352  0.58756442     0.01900
C1792       C  0.15735977  0.95323887  0.60437943    -0.00400
C1793       C  0.14141327  0.91566331  0.61604268    -0.12100
C1794       C  0.11244638  0.86895422  0.61108795     0.01800
H1795       H  0.09984236  0.88896408  0.56955440     0.14800
H1796       H  0.15272500  0.92244389  0.62914769     0.14800
C1797       C  0.09914889  0.83260640  0.62371320     0.36400
C1798       C  0.15496040  0.97874552  0.57469271     0.36300
N1799       N  0.08876027  0.80361891  0.63386361    -0.43900
N1800       N  0.16657114  0.00730293  0.56429839    -0.43900
C1801       C  0.16947448  0.78293197  0.55034449    -0.00300
C1802       C  0.20615040  0.80459075  0.56218268    -0.12200
C1803       C  0.25245893  0.83494356  0.55704483     0.01900
C1804       C  0.26308967  0.84345219  0.53960743    -0.00400
C1805       C  0.22673221  0.81907421  0.52776976    -0.12100
C1806       C  0.18030265  0.78943361  0.53295888     0.01800
H1807       H  0.19818604  0.80014321  0.57563341     0.14800
H1808       H  0.23428218  0.82429662  0.51430552     0.14800
C1809       C  0.14459101  0.76625624  0.52021187     0.36400
C1810       C  0.28716227  0.85949917  0.57001175     0.36300
N1811       N  0.11619189  0.74771892  0.50991301    -0.43900
N1812       N  0.31482515  0.87930045  0.58043696    -0.43900
C1813       C  0.89146703  0.73344316  0.57803271    -0.00300
C1814       C  0.90897003  0.78203952  0.57913727    -0.12200
C1815       C  0.88522899  0.80007300  0.58836999     0.01900
C1816       C  0.84286813  0.76939102  0.59687442    -0.00400
C1817       C  0.82430464  0.72086590  0.59524360    -0.12100
C1818       C  0.84762589  0.70273354  0.58581077     0.01800
H1819       H  0.94261306  0.80632426  0.57348581     0.14800
H1820       H  0.79117797  0.69690302  0.60130290     0.14800
C1821       C  0.82528939  0.65238192  0.58425466     0.36400
C1822       C  0.90683492  0.85035732  0.58980908     0.36300
N1823       N  0.80725386  0.61203855  0.58297186    -0.43900
N1824       N  0.92424990  0.89066706  0.59098566    -0.43900
C1825       C  0.95168161  0.64557432  0.62794207    -0.00300
C1826       C  0.97271398  0.67936081  0.64083614    -0.12200
C1827       C  0.95323994  0.67116286  0.65715566     0.01900
C1828       C  0.91239328  0.62834104  0.66086238    -0.00400
C1829       C  0.89044281  0.59530305  0.64799577    -0.12100
C1830       C  0.90908260  0.60355718  0.63163075     0.01800
H1831       H  0.00459360  0.71222032  0.63822422     0.14800
H1832       H  0.85924342  0.56203942  0.65093239     0.14800
C1833       C  0.88406620  0.56728023  0.61920486     0.36400
C1834       C  0.97673769  0.70622391  0.67007204     0.36300
N1835       N  0.86366547  0.53821953  0.60928886    -0.43900
N1836       N  0.99542077  0.73437533  0.68042777    -0.43900
C1837       C  0.82418393  0.58836608  0.43937048    -0.00300
C1838       C  0.80375575  0.57247548  0.42333061    -0.12200
C1839       C  0.77289505  0.58568149  0.41640850     0.01900
C1840       C  0.76235544  0.61616514  0.42547977    -0.00400
C1841       C  0.78025942  0.62958132  0.44185621    -0.12100
C1842       C  0.81030135  0.61588760  0.44893339     0.01800
H1843       H  0.81275811  0.55057533  0.41591353     0.14800
H1844       H  0.77169218  0.65217720  0.44907179     0.14800
C1845       C  0.82681382  0.63238309  0.46588273     0.36400
C1846       C  0.75468037  0.56921713  0.39963526     0.36300
N1847       N  0.83968596  0.64576150  0.47947124    -0.43900
N1848       N  0.73994476  0.55560408  0.38623944    -0.43900
C1849       C  0.92907951  0.59859227  0.48467206    -0.00300
C1850       C  0.89429765  0.58582708  0.49706562    -0.12200
C1851       C  0.90512468  0.60533387  0.51325198     0.01900
C1852       C  0.95184211  0.63961540  0.51728597    -0.00400
C1853       C  0.98710381  0.65094023  0.50507438    -0.12100
C1854       C  0.97617764  0.63024509  0.48892537     0.01800
H1855       H  0.85798541  0.56130070  0.49389072     0.14800
H1856       H  0.02326098  0.67593900  0.50815781     0.14800
C1857       C  0.01347035  0.64335793  0.47679596     0.36400
C1858       C  0.86695868  0.59060628  0.52514440     0.36300
N1859       N  0.04344716  0.65362897  0.46712239    -0.43900
N1860       N  0.83630069  0.57842351  0.53465655    -0.43900
C1861       C  0.93145044  0.52497423  0.43021516    -0.00300
C1862       C  0.97878065  0.53771154  0.43171060    -0.12200
C1863       C  0.99717814  0.51357216  0.42298778     0.01900
C1864       C  0.96778322  0.47488737  0.41243866    -0.00400
C1865       C  0.92084109  0.46368040  0.41038928    -0.12100
C1866       C  0.90258305  0.48796900  0.41911449     0.01800
H1867       H  0.00158064  0.56644753  0.43998586     0.14800
H1868       H  0.89737753  0.43430211  0.40249321     0.14800
C1869       C  0.85319307  0.47163111  0.41731584     0.36400
C1870       C  0.04611991  0.52903581  0.42565062     0.36300
N1871       N  0.81355280  0.45826531  0.41587957    -0.43900
N1872       N  0.08536278  0.54169987  0.42788251    -0.43900
C1873       C  0.18591948  0.47152227  0.53651507    -0.00300
C1874       C  0.19714690  0.47513370  0.55379773    -0.12200
C1875       C  0.22701629  0.46008207  0.56001025     0.01900
C1876       C  0.24654648  0.44122811  0.54881479    -0.00400
C1877       C  0.23778019  0.44006919  0.53147491    -0.12100
C1878       C  0.20839866  0.45560451  0.52517236     0.01800
H1879       H  0.18056751  0.48725898  0.56267649     0.14800
H1880       H  0.25322834  0.42605326  0.52286691     0.14800
C1881       C  0.20187225  0.45394524  0.50702705     0.36400
C1882       C  0.23368605  0.46060903  0.57811276     0.36300
N1883       N  0.19668687  0.45238846  0.49249228    -0.43900
N1884       N  0.23880021  0.46097694  0.59262414    -0.43900
C1885       C  0.03835438  0.57701943  0.56622105    -0.00300
C1886       C  0.08477828  0.58718575  0.56865947    -0.12200
C1887       C  0.10342377  0.56395236  0.55945892     0.01900
C1888       C  0.07556155  0.52959165  0.54727194    -0.00400
C1889       C  0.02847846  0.51749351  0.54556791    -0.12100
C1890       C  0.00961240  0.54012980  0.55489582     0.01800
H1891       H  0.10752651  0.61495004  0.57727541     0.14800
H1892       H  0.00604006  0.49021562  0.53673177     0.14800
C1893       C  0.96072548  0.52485541  0.55212902     0.36400
C1894       C  0.15196116  0.57806761  0.56231337     0.36300
N1895       N  0.92157089  0.51248052  0.54983192    -0.43900
N1896       N  0.19082826  0.58938412  0.56469675    -0.43900
C1897       C  0.06690421  0.44205824  0.49480487    -0.00300
C1898       C  0.06094099  0.39746947  0.49178388    -0.12200
C1899       C  0.05267553  0.37862282  0.47550763     0.01900
C1900       C  0.05035261  0.40468957  0.46172354    -0.00400
C1901       C  0.05372080  0.44826952  0.46486427    -0.12100
C1902       C  0.06163880  0.46695405  0.48128530     0.01800
H1903       H  0.06513200  0.37817990  0.50213479     0.14800
H1904       H  0.05052115  0.46793860  0.45444702     0.14800
C1905       C  0.06678039  0.51261224  0.48374775     0.36400
C1906       C  0.04978382  0.33383658  0.47325026     0.36300
N1907       N  0.07069229  0.54913649  0.48571185    -0.43900
N1908       N  0.04749479  0.29797008  0.47145661    -0.43900
loop_ 
_geom_bond_atom_site_label_1 
_geom_bond_atom_site_label_2 
_geom_bond_distance 
_geom_bond_site_symmetry_2 
_ccdc_geom_bond_type 
C1            N2   1.369       .  A
C1            N6   1.365       .  A
C1         C1888   1.497       .  S
N2            C3   1.361       .  A
C3            N4   1.347       .  A
C3         C1897   1.475       .  S
N4            C5   1.346       .  A
C5            N6   1.361       .  A
C5         C1873   1.487       .  S
C7            N8   1.367       .  A
C7           N12   1.368       .  A
C7         C1861   1.495       .  S
N8            C9   1.359       .  A
C9           N10   1.350       .  A
C9         C1849   1.478       .  S
N10          C11   1.350       .  A
C11          N12   1.364       .  A
C11        C1837   1.500       .  S
Fe13         O29   2.048       .  S
Fe13         O19   2.049       .  S
Fe13         O26   2.045       .  S
Fe13         O18   2.051       .  S
Fe13         O24   1.971   1_655  S
Fe14         O17   2.084       .  S
Fe14         O21   2.068       .  S
Fe14         O25   2.105       .  S
Fe14         O30   2.045       .  S
Fe14         O24   1.965       .  S
Fe15         O33   2.053       .  S
Fe15         O20   2.085       .  S
Fe15         O27   2.108   1_455  S
Fe15         O16   2.075   1_455  S
Fe15         O24   1.963       .  S
O16          C23   1.266       .  A
O17          C31   1.275       .  A
O18          C23   1.262       .  A
O19          C22   1.269       .  A
O20          C32   1.274       .  A
O21          C34   1.266   1_455  A
C22        C1813   1.500       .  S
C22          O27   1.281       .  A
C23        C1852   1.488       .  S
O25          C28   1.280       .  A
O26          C28   1.268   1_655  A
C28        C1885   1.503       .  S
O29          C34   1.261       .  A
O30          C32   1.266       .  A
C31        C1789   1.491       .  S
C31          O33   1.268       .  A
C32        C1801   1.481       .  S
C34        C1825   1.492       .  S
C35          N36   1.368       .  A
C35          N40   1.367       .  A
C35        C1768   1.500       .  S
N36          C37   1.360       .  A
C37          N38   1.348       .  A
C37        C1777   1.474       .  S
N38          C39   1.351       .  A
C39          N40   1.362       .  A
C39        C1753   1.477       .  S
C41          N42   1.367       .  A
C41          N46   1.365       .  A
C41        C1741   1.490       .  S
N42          C43   1.365       .  A
C43          N44   1.353       .  A
C43        C1720   1.497       .  S
N44          C45   1.349       .  A
C45          N46   1.360       .  A
C45        C1729   1.471       .  S
Fe47         O63   2.048       .  S
Fe47         O53   2.069       .  S
Fe47         O60   2.075       .  S
Fe47         O52   2.057       .  S
Fe47         O58   1.958       .  S
Fe48         O51   2.038       .  S
Fe48         O55   2.109       .  S
Fe48         O59   2.060   1_565  S
Fe48         O64   2.084       .  S
Fe48         O58   1.960   1_565  S
Fe49         O67   2.085   1_545  S
Fe49         O54   2.040   1_545  S
Fe49         O61   2.052       .  S
Fe49         O50   2.103       .  S
Fe49         O58   1.952       .  S
O50          C57   1.279       .  A
O51          C65   1.267       .  A
O52          C57   1.270       .  A
O53          C56   1.266       .  A
O54          C66   1.264       .  A
O55          C68   1.276   1_565  A
C56        C1705   1.483       .  S
C56          O61   1.264       .  A
C57        C1765   1.506       .  S
O59          C62   1.266       .  A
O60          C62   1.270       .  A
C62        C1732   1.497       .  S
O63          C68   1.266       .  A
O64          C66   1.273       .  A
C65        C1669   1.469       .  S
C65          O67   1.276       .  A
C66        C1681   1.477       .  S
C68        C1696   1.485   1_545  S
Fe69         O85   2.069       .  S
Fe69         O75   2.064       .  S
Fe69         O82   2.063       .  S
Fe69         O74   2.063       .  S
Fe69         O80   1.967       .  S
Fe70         O73   2.081       .  S
Fe70         O77   2.062       .  S
Fe70         O81   2.099       .  S
Fe70         O86   2.039       .  S
Fe70         O80   1.961       .  S
Fe71         O89   2.050       .  S
Fe71         O76   2.084       .  S
Fe71         O83   2.105       .  S
Fe71         O72   2.073       .  S
Fe71         O80   1.959       .  S
O72          C79   1.265       .  A
O73          C87   1.273       .  A
O74          C79   1.264       .  A
O75          C78   1.274       .  A
O76          C88   1.275       .  A
O77          C90   1.265       .  A
C78        C1744   1.500       .  S
C78          O83   1.281       .  A
C79        C1660   1.487       .  S
O81          C84   1.279       .  A
O82          C84   1.272       .  A
C84        C1648   1.505       .  S
O85          C90   1.265       .  A
O86          C88   1.265       .  A
C87        C1633   1.491       .  S
C87          O89   1.267       .  A
C88        C1624   1.477       .  S
C90        C1780   1.492       .  S
C91          N92   1.369       .  A
C91          N96   1.366       .  A
C91        C1609   1.496       .  S
N92          C93   1.363       .  A
C93          N94   1.351       .  A
C93        C1657   1.485       .  S
N94          C95   1.351       .  A
C95          N96   1.360       .  A
C95        C1597   1.474       .  S
C97          N98   1.366       .  A
C97         N102   1.367       .  A
C97        C1645   1.500       .  S
N98          C99   1.359       .  A
C99         N100   1.349       .  A
C99        C1588   1.477       .  S
N100        C101   1.350       .  A
C101        N102   1.365       .  A
C101       C1573   1.493       .  S
Fe103       O119   2.070       .  S
Fe103       O109   2.060       .  S
Fe103       O116   2.054       .  S
Fe103       O108   2.079       .  S
Fe103       O114   1.977   1_455  S
Fe104       O107   2.040       .  S
Fe104       O111   2.085       .  S
Fe104       O115   2.059       .  S
Fe104       O120   2.088       .  S
Fe104       O114   1.972       .  S
Fe105       O123   2.076       .  S
Fe105       O110   2.035       .  S
Fe105       O117   2.046   1_655  S
Fe105       O106   2.086   1_655  S
Fe105       O114   1.974       .  S
O106        C113   1.274       .  A
O107        C121   1.264       .  A
O108        C113   1.274       .  A
O109        C112   1.263       .  A
O110        C122   1.263       .  A
O111        C124   1.276       .  A
C112       C1900   1.481       .  S
C112        O117   1.261       .  A
C113       C1612   1.486       .  S
O115        C118   1.265   1_655  A
O116        C118   1.263       .  A
C118       C1585   1.481       .  S
O119        C124   1.272   1_455  A
O120        C122   1.275       .  A
C121       C1561   1.471       .  S
C121        O123   1.272       .  A
C122       C1552   1.481       .  S
C124       C1864   1.505       .  S
C125        N126   1.365       .  A
C125        N130   1.369       .  A
C125       C1693   1.488       .  S
N126        C127   1.362       .  A
C127        N128   1.349       .  A
C127       C1528   1.489       .  S
N128        C129   1.347       .  A
C129        N130   1.362       .  A
C129       C1537   1.479   1_554  S
C131        N132   1.365       .  A
C131        N136   1.365       .  A
C131       C1513   1.497       .  S
N132        C133   1.359       .  A
C133        N134   1.349       .  A
C133       C1708   1.470       .  S
N134        C135   1.350       .  A
C135        N136   1.363       .  A
C135       C1501   1.490       .  S
Fe137       O153   2.077       .  S
Fe137       O143   2.068       .  S
Fe137       O150   2.067   1_565  S
Fe137       O142   2.077       .  S
Fe137       O148   1.971   1_565  S
Fe138       O141   2.064       .  S
Fe138       O145   2.058       .  S
Fe138       O149   2.073       .  S
Fe138       O154   2.054       .  S
Fe138       O148   1.967       .  S
Fe139       O157   2.058       .  S
Fe139       O144   2.067       .  S
Fe139       O151   2.075   1_545  S
Fe139       O140   2.057       .  S
Fe139       O148   1.964       .  S
O140        C147   1.269   1_545  A
O141        C155   1.270       .  A
O142        C147   1.272       .  A
O143        C146   1.269       .  A
O144        C156   1.270       .  A
O145        C158   1.268       .  A
C146       C1480   1.502       .  S
C146        O151   1.269       .  A
C147       C1540   1.484       .  S
O149        C152   1.270       .  A
O150        C152   1.267       .  A
C152       C1516   1.503       .  S
O153        C158   1.272   1_565  A
O154        C156   1.268       .  A
C155       C1456   1.481       .  S
C155        O157   1.269       .  A
C156       C1465   1.486       .  S
C158       C1492   1.482       .  S
C159        N160   1.365       .  A
C159        N164   1.366       .  A
C159       C1444   1.495       .  S
N160        C161   1.362       .  A
C161        N162   1.352       .  A
C161       C1432   1.492       .  S
N162        C163   1.349       .  A
C163        N164   1.359       .  A
C163       C1828   1.470       .  S
C165        N166   1.370       .  A
C165        N170   1.365       .  A
C165       C1816   1.493       .  S
N166        C167   1.364       .  A
C167        N168   1.348       .  A
C167       C1417   1.482       .  S
N168        C169   1.349       .  A
C169        N170   1.361       .  A
C169       C1405   1.489       .  S
C171        N172   1.368       .  A
C171        N176   1.366       .  A
C171       C1396   1.500       .  S
N172        C173   1.363       .  A
C173        N174   1.349       .  A
C173       C1489   1.481       .  S
N174        C175   1.347       .  A
C175        N176   1.364       .  A
C175       C1384   1.495       .  S
C177        N178   1.365       .  A
C177        N182   1.367       .  A
C177       C1477   1.490       .  S
N178        C179   1.358       .  A
C179        N180   1.348       .  A
C179       C1372   1.469       .  S
N180        C181   1.351       .  A
C181        N182   1.363       .  A
C181       C1360   1.497       .  S
Fe183       O199   2.053       .  S
Fe183       O189   2.078       .  S
Fe183       O196   2.068       .  S
Fe183       O188   2.063       .  S
Fe183       O194   1.970       .  S
Fe184       O187   2.039       .  S
Fe184       O191   2.098       .  S
Fe184       O195   2.052       .  S
Fe184       O200   2.088       .  S
Fe184       O194   1.968       .  S
Fe185       O203   2.083       .  S
Fe185       O190   2.039       .  S
Fe185       O197   2.058       .  S
Fe185       O186   2.094       .  S
Fe185       O194   1.965       .  S
O186        C193   1.275       .  A
O187        C201   1.265       .  A
O188        C193   1.269       .  A
O189        C192   1.270       .  A
O190        C202   1.264       .  A
O191        C204   1.276       .  A
C192       C1420   1.491       .  S
C192        O197   1.266       .  A
C193       C1393   1.507       .  S
O195        C198   1.266       .  A
O196        C198   1.268       .  A
C198       C1369   1.485       .  S
O199        C204   1.267       .  A
O200        C202   1.275       .  A
C201       C1333   1.483       .  S
C201        O203   1.274       .  A
C202       C1345   1.484       .  S
C204       C1441   1.505       .  S
C205        N206   1.368       .  A
C205        N210   1.367       .  A
C205       C1312   1.495       .  S
N206        C207   1.366       .  A
C207        N208   1.348       .  A
C207       C1348   1.495       .  S
N208        C209   1.346       .  A
C209        N210   1.359       .  A
C209       C1321   1.472       .  S
C211        N212   1.364       .  A
C211        N216   1.367       .  A
C211       C1297   1.492       .  S
N212        C213   1.359   1_455  A
C213        N214   1.351       .  A
C213       C1453   1.468       .  S
N214        C215   1.350   1_655  A
C215        N216   1.361       .  A
C215       C1288   1.476       .  S
Fe217       O233   2.060       .  S
Fe217       O223   2.058       .  S
Fe217       O230   2.054       .  S
Fe217       O222   2.062   1_455  S
Fe217       O228   1.972       .  S
Fe218       O221   2.051       .  S
Fe218       O225   2.097       .  S
Fe218       O229   2.067       .  S
Fe218       O234   2.076   1_455  S
Fe218       O228   1.967       .  S
Fe219       O237   2.084   1_655  S
Fe219       O224   2.043       .  S
Fe219       O231   2.067       .  S
Fe219       O220   2.101       .  S
Fe219       O228   1.965   1_655  S
O220        C227   1.278       .  A
O221        C235   1.268       .  A
O222        C227   1.272       .  A
O223        C226   1.263   1_455  A
O224        C236   1.265       .  A
O225        C238   1.276       .  A
C226       C1285   1.492   1_655  S
C226        O231   1.266       .  A
C227       C1261   1.509       .  S
O229        C232   1.266       .  A
O230        C232   1.264       .  A
C232       C1273   1.484       .  S
O233        C238   1.271       .  A
O234        C236   1.272       .  A
C235       C1249   1.493       .  S
C235        O237   1.276       .  A
C236       C1429   1.479       .  S
C238       C1309   1.502       .  S
Fe239       O255   2.063       .  S
Fe239       O245   2.050       .  S
Fe239       O252   2.059       .  S
Fe239       O244   2.060       .  S
Fe239       O250   1.973       .  S
Fe240       O243   2.077       .  S
Fe240       O247   2.055       .  S
Fe240       O251   2.091       .  S
Fe240       O256   2.043       .  S
Fe240       O250   1.965       .  S
Fe241       O259   2.046       .  S
Fe241       O246   2.080       .  S
Fe241       O253   2.094       .  S
Fe241       O242   2.064       .  S
Fe241       O250   1.969       .  S
O242        C249   1.267       .  A
O243        C257   1.273       .  A
O244        C249   1.265       .  A
O245        C248   1.267       .  A
O246        C258   1.273       .  A
O247        C260   1.264       .  A
C248       C1300   1.501       .  S
C248        O253   1.276       .  A
C249       C1237   1.490       .  S
O251        C254   1.275       .  A
O252        C254   1.270       .  A
C254       C1228   1.503       .  S
O255        C260   1.266       .  A
O256        C258   1.265       .  A
C257       C1213   1.480       .  S
C257        O259   1.266       .  A
C258       C1504   1.480       .  S
C260       C1324   1.483       .  S
C261        N262   1.366       .  A
C261        N266   1.368       .  A
C261       C1201   1.498       .  S
N262        C263   1.358       .  A
C263        N264   1.348       .  A
C263       C1240   1.472   1_554  S
N264        C265   1.352       .  A
C265        N266   1.364       .  A
C265       C1189   1.496       .  S
C267        N268   1.367       .  A
C267        N272   1.362       .  A
C267       C1225   1.494       .  S
N268        C269   1.364       .  A
C269        N270   1.352       .  A
C269       C1177   1.482       .  S
N270        C271   1.351       .  A
C271        N272   1.359       .  A
C271       C1168   1.483       .  S
Fe273       O289   2.065       .  S
Fe273       O279   2.073       .  S
Fe273       O286   2.075       .  S
Fe273       O278   2.062       .  S
Fe273       O284   1.978       .  S
Fe274       O277   2.033       .  S
Fe274       O281   2.078       .  S
Fe274       O285   2.048       .  S
Fe274       O290   2.070       .  S
Fe274       O284   1.967       .  S
Fe275       O293   2.077       .  S
Fe275       O280   2.048       .  S
Fe275       O287   2.056       .  S
Fe275       O276   2.084       .  S
Fe275       O284   1.978       .  S
O276        C283   1.273       .  A
O277        C291   1.265       .  A
O278        C283   1.270       .  A
O279        C282   1.268       .  A
O280        C292   1.265       .  A
O281        C294   1.271       .  A
C282       C1180   1.486       .  S
C282        O287   1.264       .  A
C283       C1141   1.479       .  S
O285        C288   1.264       .  A
O286        C288   1.268       .  A
C288       C1156   1.482       .  S
O289        C294   1.271       .  A
O290        C292   1.271       .  A
C291       C1525   1.474       .  S
C291        O293   1.274       .  A
C292       C1132   1.487       .  S
C294       C1204   1.502       .  S
C295        N296   1.367       .  A
C295        N300   1.368       .  A
C295       C1264   1.505       .  S
N296        C297   1.360       .  A
C297        N298   1.348       .  A
C297       C1117   1.477       .  S
N298        C299   1.349       .  A
C299        N300   1.365       .  A
C299       C1105   1.495       .  S
C301        N302   1.367       .  A
C301        N306   1.366       .  A
C301       C1093   1.491       .  S
N302        C303   1.359       .  A
C303        N304   1.348   1_655  A
C303       C1276   1.472       .  S
N304        C305   1.348       .  A
C305        N306   1.362   1_455  A
C305       C1081   1.479       .  S
C307        N308   1.364       .  A
C307        N312   1.367       .  A
C307       C1057   1.495       .  S
N308        C309   1.361       .  A
C309        N310   1.351       .  A
C309       C1804   1.488       .  S
N310        C311   1.351       .  A
C311        N312   1.363       .  A
C311       C1069   1.482       .  S
C313        N314   1.363       .  A
C313        N318   1.359       .  A
C313       C1048   1.485       .  S
N314        C315   1.359       .  A
C315        N316   1.352       .  A
C315       C1033   1.471       .  S
N316        C317   1.351       .  A
C317        N318   1.358       .  A
C317       C1564   1.480       .  S
Fe319       O335   2.065       .  S
Fe319       O325   2.044       .  S
Fe319       O332   2.057       .  S
Fe319       O324   2.060       .  S
Fe319       O330   1.955       .  S
Fe320       O323   2.081       .  S
Fe320       O327   2.059   1_565  S
Fe320       O331   2.098       .  S
Fe320       O336   2.044       .  S
Fe320       O330   1.952   1_565  S
Fe321       O339   2.046   1_545  S
Fe321       O326   2.087   1_545  S
Fe321       O333   2.109       .  S
Fe321       O322   2.064       .  S
Fe321       O330   1.955       .  S
O322        C329   1.268       .  A
O323        C337   1.275       .  A
O324        C329   1.266       .  A
O325        C328   1.267       .  A
O326        C338   1.276       .  A
O327        C340   1.265       .  A
C328       C1096   1.499       .  S
C328        O333   1.279       .  A
C329       C1036   1.480       .  S
O331        C334   1.277   1_565  A
O332        C334   1.269       .  A
C334       C1060   1.504   1_545  S
O335        C340   1.267       .  A
O336        C338   1.264       .  A
C337       C1408   1.471       .  S
C337        O339   1.268       .  A
C338       C1024   1.494       .  S
C340       C1120   1.478       .  S
Fe341       O357   2.040   1_565  S
Fe341       O347   2.063       .  S
Fe341       O354   2.071       .  S
Fe341       O346   2.047       .  S
Fe341       O352   1.957   1_565  S
Fe342       O345   2.049       .  S
Fe342       O349   2.096       .  S
Fe342       O353   2.060       .  S
Fe342       O358   2.071       .  S
Fe342       O352   1.949       .  S
Fe343       O361   2.091       .  S
Fe343       O348   2.057       .  S
Fe343       O355   2.064       .  S
Fe343       O344   2.101   1_545  S
Fe343       O352   1.951       .  S
O344        C351   1.279       .  A
O345        C359   1.270       .  A
O346        C351   1.268       .  A
O347        C350   1.266       .  A
O348        C360   1.266       .  A
O349        C362   1.276       .  A
C350       C1072   1.478       .  S
C350        O355   1.267   1_565  A
C351       C1000   1.500       .  S
O353        C356   1.267       .  A
O354        C356   1.270   1_565  A
C356       C1009   1.486   1_545  S
O357        C362   1.265       .  A
O358        C360   1.271       .  A
C359        C985   1.479       .  S
C359        O361   1.278       .  A
C360       C1600   1.487       .  S
C362       C1045   1.493       .  S
C363        N364   1.372       .  A
C363        N368   1.367       .  A
C363        C997   1.501       .  S
N364        C365   1.362       .  A
C365        N366   1.344   1_455  A
C365        C973   1.483       .  S
N366        C367   1.343       .  A
C367        N368   1.360   1_655  A
C367        C964   1.469       .  S
C369        N370   1.368       .  A
C369        N374   1.365       .  A
C369        C949   1.500       .  S
N370        C371   1.364       .  A
C371        N372   1.352       .  A
C371        C940   1.497       .  S
N372        C373   1.349       .  A
C373        N374   1.358       .  A
C373       C1012   1.475       .  S
C375        N376   1.365       .  A
C375        N380   1.365       .  A
C375       C1144   1.486       .  S
N376        C377   1.363   1_655  A
C377        N378   1.349       .  A
C377       C1684   1.489       .  S
N378        C379   1.347   1_455  A
C379        N380   1.358       .  A
C379        C928   1.469       .  S
C381        N382   1.368       .  A
C381        N386   1.368       .  A
C381        C913   1.494       .  S
N382        C383   1.365       .  A
C383        N384   1.350       .  A
C383       C1636   1.500       .  S
N384        C385   1.349       .  A
C385        N386   1.361       .  A
C385       C1153   1.484       .  S
Fe387       O403   2.069   1_455  S
Fe387       O393   2.063       .  S
Fe387       O400   2.054   1_455  S
Fe387       O392   2.075       .  S
Fe387       O398   1.949       .  S
Fe388       O391   2.095   1_655  S
Fe388       O395   2.063       .  S
Fe388       O399   2.121       .  S
Fe388       O404   2.051       .  S
Fe388       O398   1.942   1_655  S
Fe389       O407   2.046       .  S
Fe389       O394   2.075       .  S
Fe389       O401   2.096       .  S
Fe389       O390   2.052       .  S
Fe389       O398   1.939       .  S
O390        C397   1.266       .  A
O391        C405   1.277       .  A
O392        C397   1.268       .  A
O393        C396   1.272       .  A
O394        C406   1.274   1_455  A
O395        C408   1.265       .  A
C396        C952   1.504       .  S
C396        O401   1.276       .  A
C397        C925   1.484       .  S
O399        C402   1.281       .  A
O400        C402   1.270       .  A
C402        C916   1.489       .  S
O403        C408   1.267       .  A
O404        C406   1.267       .  A
C405       C1576   1.478       .  S
C405        O407   1.267       .  A
C406        C901   1.484       .  S
C408        C976   1.478   1_655  S
C409        N410   1.368       .  A
C409        N414   1.366       .  A
C409        C877   1.499       .  S
N410        C411   1.366       .  A
C411        N412   1.353       .  A
C411       C1252   1.500       .  S
N412        C413   1.348       .  A
C413        N414   1.358       .  A
C413        C889   1.471       .  S
C415        N416   1.361       .  A
C415        N420   1.363   1_565  A
C415        C865   1.487       .  S
N416        C417   1.356   1_565  A
C417        N418   1.350       .  A
C417        C853   1.465       .  S
N418        C419   1.354       .  A
C419        N420   1.362       .  A
C419       C1216   1.493       .  S
Fe421       O437   2.059       .  S
Fe421       O427   2.059       .  S
Fe421       O434   2.057       .  S
Fe421       O426   2.069   1_545  S
Fe421       O432   1.975       .  S
Fe422       O425   2.048       .  S
Fe422       O429   2.086       .  S
Fe422       O433   2.059       .  S
Fe422       O438   2.081       .  S
Fe422       O432   1.972       .  S
Fe423       O441   2.080   1_565  S
Fe423       O428   2.039       .  S
Fe423       O435   2.058   1_565  S
Fe423       O424   2.085       .  S
Fe423       O432   1.968   1_565  S
O424        C431   1.273       .  A
O425        C439   1.266       .  A
O426        C431   1.272       .  A
O427        C430   1.265       .  A
O428        C440   1.263       .  A
O429        C442   1.273       .  A
C430        C841   1.477       .  S
C430        O435   1.266       .  A
C431        C880   1.507       .  S
O433        C436   1.267       .  A
O434        C436   1.265       .  A
C436        C856   1.490       .  S
O437        C442   1.270       .  A
O438        C440   1.273   1_545  A
C439       C1108   1.486       .  S
C439        O441   1.274       .  A
C440       C1381   1.487       .  S
C442        C829   1.502       .  S
C443        N444   1.365       .  A
C443        N448   1.367   1_565  A
C443        C808   1.501       .  S
N444        C445   1.359   1_565  A
C445        N446   1.348       .  A
C445        C817   1.472       .  S
N446        C447   1.350       .  A
C447        N448   1.365       .  A
C447       C1549   1.483       .  S
C449        N450   1.366       .  A
C449        N454   1.365       .  A
C449        C796   1.486       .  S
N450        C451   1.359       .  A
C451        N452   1.348       .  A
C451        C781   1.475       .  S
N452        C453   1.348       .  A
C453        N454   1.363       .  A
C453       C1621   1.485       .  S
C455        N456   1.364       .  A
C455        N460   1.366       .  A
C455        C757   1.503       .  S
N456        C457   1.357       .  A
C457        N458   1.347       .  A
C457        C769   1.470   1_554  S
N458        C459   1.348       .  A
C459        N460   1.363       .  A
C459       C1672   1.485       .  S
C461        N462   1.367       .  A
C461        N466   1.370       .  A
C461        C745   1.504       .  S
N462        C463   1.361       .  A
C463        N464   1.347       .  A
C463       C1468   1.470       .  S
N464        C465   1.348       .  A
C465        N466   1.362       .  A
C465        C733   1.478       .  S
C467        N468   1.369       .  A
C467        N472   1.367       .  A
C467        C712   1.504       .  S
N468        C469   1.359       .  A
C469        N470   1.347       .  A
C469        C721   1.475       .  S
N470        C471   1.348       .  A
C471        N472   1.361       .  A
C471       C1129   1.473   1_545  S
C473        N474   1.370       .  A
C473        N478   1.368       .  A
C473        C697   1.502       .  S
N474        C475   1.362       .  A
C475        N476   1.347       .  A
C475        C685   1.478       .  S
N476        C477   1.346       .  A
C477        N478   1.360       .  A
C477        C904   1.470       .  S
Fe479       O495   2.038       .  S
Fe479       O485   2.071       .  S
Fe479       O492   2.070       .  S
Fe479       O484   2.041       .  S
Fe479       O490   1.952   1_655  S
Fe480       O483   2.052       .  S
Fe480       O487   2.109       .  S
Fe480       O491   2.065       .  S
Fe480       O496   2.081       .  S
Fe480       O490   1.941       .  S
Fe481       O499   2.084       .  S
Fe481       O486   2.056       .  S
Fe481       O493   2.068       .  S
Fe481       O482   2.111   1_455  S
Fe481       O490   1.940       .  S
O482        C489   1.281       .  A
O483        C497   1.270       .  A
O484        C489   1.267       .  A
O485        C488   1.268       .  A
O486        C498   1.269       .  A
O487        C500   1.279       .  A
C488        C736   1.485       .  S
C488        O493   1.267   1_655  A
C489        C709   1.500       .  S
O491        C494   1.267   1_455  A
O492        C494   1.268       .  A
C494        C688   1.483       .  S
O495        C500   1.268   1_655  A
O496        C498   1.275       .  A
C497       C1192   1.485       .  S
C497        O499   1.275       .  A
C498       C1756   1.495       .  S
C500        C760   1.499       .  S
Fe501       O517   2.065       .  S
Fe501       O507   2.057       .  S
Fe501       O514   2.050   1_545  S
Fe501       O506   2.055       .  S
Fe501       O512   1.955       .  S
Fe502       O505   2.080   1_565  S
Fe502       O509   2.065   1_565  S
Fe502       O513   2.109       .  S
Fe502       O518   2.050       .  S
Fe502       O512   1.951   1_565  S
Fe503       O521   2.055       .  S
Fe503       O508   2.089       .  S
Fe503       O515   2.106       .  S
Fe503       O504   2.065       .  S
Fe503       O512   1.944       .  S
O504        C511   1.265       .  A
O505        C519   1.272       .  A
O506        C511   1.263       .  A
O507        C510   1.274       .  A
O508        C520   1.278   1_545  A
O509        C522   1.266       .  A
C510        C700   1.504       .  S
C510        O515   1.281       .  A
C511        C820   1.480       .  S
O513        C516   1.277       .  A
O514        C516   1.269       .  A
C516        C793   1.485       .  S
O517        C522   1.266       .  A
O518        C520   1.270       .  A
C519       C1717   1.493       .  S
C519        O521   1.268       .  A
C520        C937   1.485       .  S
C522        C724   1.484       .  S
Fe523       O539   2.072       .  S
Fe523       O529   2.045       .  S
Fe523       O536   2.050       .  S
Fe523       O528   2.062       .  S
Fe523       O534   1.949   1_455  S
Fe524       O527   2.083       .  S
Fe524       O531   2.062       .  S
Fe524       O535   2.111       .  S
Fe524       O540   2.044       .  S
Fe524       O534   1.942       .  S
Fe525       O543   2.047       .  S
Fe525       O530   2.080       .  S
Fe525       O537   2.100   1_655  S
Fe525       O526   2.057   1_655  S
Fe525       O534   1.945       .  S
O526        C533   1.266       .  A
O527        C541   1.275       .  A
O528        C533   1.267       .  A
O529        C532   1.270       .  A
O530        C542   1.273       .  A
O531        C544   1.266   1_655  A
C532        C868   1.494       .  S
C532        O537   1.277       .  A
C533        C772   1.481       .  S
O535        C538   1.281       .  A
O536        C538   1.269   1_455  A
C538        C748   1.507       .  S
O539        C544   1.267       .  A
O540        C542   1.266       .  A
C541       C1357   1.482       .  S
C541        O543   1.268       .  A
C542       C1165   1.467       .  S
C544        C892   1.492       .  S
C545        N546   1.361       .  A
C545        N550   1.369       .  A
C545        C661   1.500       .  S
N546        C547   1.353       .  A
C547        N548   1.348       .  A
C547        C673   1.464       .  S
N548        C549   1.354       .  A
C549        N550   1.366       .  A
C549        C988   1.498       .  S
C551        N552   1.370       .  A
C551        N556   1.365       .  A
C551        C649   1.489       .  S
N552        C553   1.368       .  A
C553        N554   1.348       .  A
C553       C1021   1.492       .  S
N554        C555   1.345       .  A
C555        N556   1.355       .  A
C555        C637   1.467       .  S
Fe557       O573   2.061       .  S
Fe557       O563   2.057       .  S
Fe557       O570   2.060       .  S
Fe557       O562   2.056       .  S
Fe557       O568   1.956       .  S
Fe558       O561   2.057       .  S
Fe558       O565   2.088       .  S
Fe558       O569   2.062       .  S
Fe558       O574   2.068       .  S
Fe558       O568   1.956       .  S
Fe559       O577   2.080       .  S
Fe559       O564   2.042       .  S
Fe559       O571   2.059       .  S
Fe559       O560   2.100       .  S
Fe559       O568   1.953       .  S
O560        C567   1.276       .  A
O561        C575   1.268       .  A
O562        C567   1.270       .  A
O563        C566   1.266       .  A
O564        C576   1.266       .  A
O565        C578   1.274       .  A
C566        C640   1.482       .  S
C566        O571   1.266       .  A
C567        C805   1.506       .  S
O569        C572   1.267       .  A
O570        C572   1.266       .  A
C572        C784   1.476       .  S
O573        C578   1.272       .  A
O574        C576   1.271       .  A
C575       C1840   1.487       .  S
C575        O577   1.275       .  A
C576        C961   1.484       .  S
C578        C664   1.502       .  S
C579        N580   1.366       .  A
C579        N584   1.362       .  A
C579        C832   1.494       .  S
N580        C581   1.363       .  A
C581        N582   1.352       .  A
C581       C1336   1.495       .  S
N582        C583   1.348       .  A
C583        N584   1.357       .  A
C583        C625   1.466       .  S
C585        N586   1.363       .  A
C585        N590   1.367       .  A
C585        C616   1.492       .  S
N586        C587   1.358       .  A
C587        N588   1.351       .  A
C587        C844   1.479       .  S
N588        C589   1.353       .  A
C589        N590   1.365       .  A
C589       C1792   1.498   1_545  S
Fe591       O607   2.066       .  S
Fe591       O597   2.058       .  S
Fe591       O604   2.060       .  S
Fe591       O596   2.064       .  S
Fe591       O602   1.945       .  S
Fe592       O595   2.082       .  S
Fe592       O599   2.052       .  S
Fe592       O603   2.105       .  S
Fe592       O608   2.042       .  S
Fe592       O602   1.945       .  S
Fe593       O611   2.046       .  S
Fe593       O598   2.082       .  S
Fe593       O605   2.106       .  S
Fe593       O594   2.060       .  S
Fe593       O602   1.944       .  S
O594        C601   1.266       .  A
O595        C609   1.275       .  A
O596        C601   1.266       .  A
O597        C600   1.272       .  A
O598        C610   1.275       .  A
O599        C612   1.266       .  A
C600        C613   1.501       .  S
C600        O605   1.280       .  A
C601        C676   1.485       .  S
O603        C606   1.276       .  A
O604        C606   1.271       .  A
C606        C652   1.484       .  S
O607        C612   1.267       .  A
O608        C610   1.267       .  A
C609       C1084   1.491       .  S
C609        O611   1.266       .  A
C610       C1876   1.469       .  S
C612        C628   1.485       .  S
C613        C614   1.410       .  A
C613        C618   1.418       .  A
C614        C615   1.408       .  A
C614        H619   1.083       .  S
C615        C616   1.413       .  A
C615        C622   1.444       .  S
C616        C617   1.404       .  A
C617        C618   1.403       .  A
C617        H620   1.085       .  S
C618        C621   1.444       .  S
C621        N623   1.157       .  T
C622        N624   1.157       .  T
C625        C626   1.400       .  A
C625        C630   1.406       .  A
C626        C627   1.398       .  A
C626        H631   1.085       .  S
C627        C628   1.418       .  A
C627        C634   1.445       .  S
C628        C629   1.408       .  A
C629        C630   1.398       .  A
C629        H632   1.084       .  S
C630        C633   1.443       .  S
C633        N635   1.157       .  T
C634        N636   1.158       .  T
C637        C638   1.400       .  A
C637        C642   1.407       .  A
C638        C639   1.393       .  A
C638        H643   1.086       .  S
C639        C640   1.415       .  A
C639        C646   1.445       .  S
C640        C641   1.409       .  A
C641        C642   1.403       .  A
C641        H644   1.085       .  S
C642        C645   1.444       .  S
C645        N647   1.157       .  T
C646        N648   1.157       .  T
C649        C650   1.404       .  A
C649        C654   1.415       .  A
C650        C651   1.398       .  A
C650        H655   1.085       .  S
C651        C652   1.411       .  A
C651        C658   1.445       .  S
C652        C653   1.406       .  A
C653        C654   1.412       .  A
C653        H656   1.084       .  S
C654        C657   1.443       .  S
C657        N659   1.157       .  T
C658        N660   1.157       .  T
C661        C662   1.407       .  A
C661        C666   1.420       .  A
C662        C663   1.407       .  A
C662        H667   1.085       .  S
C663        C664   1.421       .  A
C663        C670   1.444       .  S
C664        C665   1.407       .  A
C665        C666   1.401       .  A
C665        H668   1.085       .  S
C666        C669   1.445       .  S
C669        N671   1.158       .  T
C670        N672   1.157       .  T
C673        C674   1.396       .  A
C673        C678   1.407       .  A
C674        C675   1.398       .  A
C674        H679   1.085       .  S
C675        C676   1.419       .  A
C675        C682   1.445       .  S
C676        C677   1.407       .  A
C677        C678   1.401       .  A
C677        H680   1.084       .  S
C678        C681   1.444       .  S
C681        N683   1.157       .  T
C682        N684   1.157       .  T
C685        C686   1.402       .  A
C685        C690   1.414       .  A
C686        C687   1.406       .  A
C686        H691   1.084       .  S
C687        C688   1.417       .  A
C687        C694   1.444   1_655  S
C688        C689   1.401       .  A
C689        C690   1.396       .  A
C689        H692   1.085       .  S
C690        C693   1.446       .  S
C693        N695   1.157       .  T
C694        N696   1.157       .  T
C697        C698   1.410       .  A
C697        C702   1.416       .  A
C698        C699   1.407       .  A
C698        H703   1.084       .  S
C699        C700   1.418       .  A
C699        C706   1.444       .  S
C700        C701   1.410       .  A
C701        C702   1.403       .  A
C701        H704   1.084       .  S
C702        C705   1.444       .  S
C705        N707   1.157       .  T
C706        N708   1.157       .  T
C709        C710   1.406       .  A
C709        C714   1.421       .  A
C710        C711   1.407       .  A
C710        H715   1.085       .  S
C711        C712   1.421       .  A
C711        C718   1.443       .  S
C712        C713   1.406       .  A
C713        C714   1.399       .  A
C713        H716   1.085       .  S
C714        C717   1.445       .  S
C717        N719   1.157       .  T
C718        N720   1.157       .  T
C721        C722   1.402       .  A
C721        C726   1.412       .  A
C722        C723   1.405       .  A
C722        H727   1.085       .  S
C723        C724   1.417       .  A
C723        C730   1.444       .  S
C724        C725   1.403       .  A
C725        C726   1.395       .  A
C725        H728   1.085   1_545  S
C726        C729   1.446       .  S
C729        N731   1.157   1_545  T
C730        N732   1.157       .  T
C733        C734   1.402       .  A
C733        C738   1.413       .  A
C734        C735   1.406   1_556  A
C734        H739   1.085   1_655  S
C735        C736   1.417       .  A
C735        C742   1.443   1_655  S
C736        C737   1.403       .  A
C737        C738   1.397   1_554  A
C737        H740   1.085       .  S
C738        C741   1.445       .  S
C741        N743   1.157       .  T
C742        N744   1.157       .  T
C745        C746   1.405       .  A
C745        C750   1.420       .  A
C746        C747   1.404   1_655  A
C746        H751   1.085   1_655  S
C747        C748   1.424   1_455  A
C747        C754   1.445       .  S
C748        C749   1.408       .  A
C749        C750   1.408       .  A
C749        H752   1.084       .  S
C750        C753   1.443       .  S
C753        N755   1.157       .  T
C754        N756   1.158       .  T
C757        C758   1.412       .  A
C757        C762   1.419       .  A
C758        C759   1.407       .  A
C758        H763   1.084       .  S
C759        C760   1.414       .  A
C759        C766   1.443       .  S
C760        C761   1.409       .  A
C761        C762   1.399       .  A
C761        H764   1.085       .  S
C762        C765   1.445       .  S
C765        N767   1.158       .  T
C766        N768   1.157       .  T
C769        C770   1.400       .  A
C769        C774   1.408       .  A
C770        C771   1.393       .  A
C770        H775   1.085       .  S
C771        C772   1.414       .  A
C771        C778   1.445       .  S
C772        C773   1.409       .  A
C773        C774   1.403       .  A
C773        H776   1.084   1_455  S
C774        C777   1.443       .  S
C777        N779   1.157   1_456  T
C778        N780   1.157       .  T
C781        C782   1.406       .  A
C781        C786   1.408       .  A
C782        C783   1.396       .  A
C782        H787   1.085       .  S
C783        C784   1.407       .  A
C783        C790   1.444       .  S
C784        C785   1.409       .  A
C785        C786   1.403       .  A
C785        H788   1.085       .  S
C786        C789   1.444       .  S
C789        N791   1.157       .  T
C790        N792   1.157       .  T
C793        C794   1.404       .  A
C793        C798   1.414       .  A
C794        C795   1.410       .  A
C794        H799   1.084       .  S
C795        C796   1.417       .  A
C795        C802   1.443       .  S
C796        C797   1.400       .  A
C797        C798   1.398       .  A
C797        H800   1.085       .  S
C798        C801   1.444       .  S
C801        N803   1.157       .  T
C802        N804   1.157       .  T
C805        C806   1.409       .  A
C805        C810   1.420       .  A
C806        C807   1.402       .  A
C806        H811   1.084       .  S
C807        C808   1.416       .  A
C807        C814   1.444       .  S
C808        C809   1.409       .  A
C809        C810   1.410       .  A
C809        H812   1.084       .  S
C810        C813   1.444       .  S
C813        N815   1.157       .  T
C814        N816   1.157       .  T
C817        C818   1.405       .  A
C817        C822   1.406   1_545  A
C818        C819   1.399       .  A
C818        H823   1.085       .  S
C819        C820   1.410       .  A
C819        C826   1.444       .  S
C820        C821   1.409       .  A
C821        C822   1.401   1_545  A
C821        H824   1.085   1_545  S
C822        C825   1.444       .  S
C825        N827   1.157       .  T
C826        N828   1.157       .  T
C829        C830   1.410       .  A
C829        C834   1.420       .  A
C830        C831   1.402       .  A
C830        H835   1.084       .  S
C831        C832   1.415       .  A
C831        C838   1.444       .  S
C832        C833   1.406       .  A
C833        C834   1.405       .  A
C833        H836   1.084       .  S
C834        C837   1.444       .  S
C837        N839   1.157       .  T
C838        N840   1.157       .  T
C841        C842   1.406       .  A
C841        C846   1.409       .  A
C842        C843   1.402       .  A
C842        H847   1.085       .  S
C843        C844   1.411       .  A
C843        C850   1.444       .  S
C844        C845   1.406       .  A
C845        C846   1.398       .  A
C845        H848   1.085   1_545  S
C846        C849   1.445   1_545  S
C849        N851   1.157       .  T
C850        N852   1.157       .  T
C853        C854   1.397       .  A
C853        C858   1.406       .  A
C854        C855   1.400       .  A
C854        H859   1.085   1_545  S
C855        C856   1.422       .  A
C855        C862   1.445   1_545  S
C856        C857   1.408       .  A
C857        C858   1.397       .  A
C857        H860   1.084       .  S
C858        C861   1.445       .  S
C861        N863   1.157       .  T
C862        N864   1.157       .  T
C865        C866   1.405       .  A
C865        C870   1.413       .  A
C866        C867   1.404       .  A
C866        H871   1.085       .  S
C867        C868   1.418       .  A
C867        C874   1.444       .  S
C868        C869   1.407       .  A
C869        C870   1.399       .  A
C869        H872   1.084       .  S
C870        C873   1.445       .  S
C873        N875   1.157       .  T
C874        N876   1.157       .  T
C877        C878   1.406       .  A
C877        C882   1.415       .  A
C878        C879   1.408       .  A
C878        H883   1.084       .  S
C879        C880   1.421       .  A
C879        C886   1.444       .  S
C880        C881   1.410       .  A
C881        C882   1.405       .  A
C881        H884   1.084       .  S
C882        C885   1.444       .  S
C885        N887   1.157       .  T
C886        N888   1.157       .  T
C889        C890   1.399       .  A
C889        C894   1.408       .  A
C890        C891   1.403       .  A
C890        H895   1.085       .  S
C891        C892   1.421       .  A
C891        C898   1.444       .  S
C892        C893   1.408       .  A
C893        C894   1.400       .  A
C893        H896   1.084   1_455  S
C894        C897   1.444       .  S
C897        N899   1.157   1_455  T
C898        N900   1.157       .  T
C901        C902   1.404       .  A
C901        C906   1.417       .  A
C902        C903   1.392       .  A
C902        H907   1.082   1_655  S
C903        C904   1.409       .  A
C903        C910   1.446   1_655  S
C904        C905   1.402       .  A
C905        C906   1.405       .  A
C905        H908   1.084       .  S
C906        C909   1.444       .  S
C909        N911   1.157       .  T
C910        N912   1.157       .  T
C913        C914   1.403       .  A
C913        C918   1.418       .  A
C914        C915   1.402       .  A
C914        H919   1.085       .  S
C915        C916   1.414       .  A
C915        C922   1.444       .  S
C916        C917   1.404       .  A
C917        C918   1.412       .  A
C917        H920   1.085       .  S
C918        C921   1.443       .  S
C921        N923   1.157       .  T
C922        N924   1.157       .  T
C925        C926   1.404       .  A
C925        C930   1.418   1_455  A
C926        C927   1.397       .  A
C926        H931   1.084       .  S
C927        C928   1.409   1_455  A
C927        C934   1.445       .  S
C928        C929   1.400       .  A
C929        C930   1.402       .  A
C929        H932   1.085       .  S
C930        C933   1.444       .  S
C933        N935   1.157       .  T
C934        N936   1.157       .  T
C937        C938   1.408       .  A
C937        C942   1.408       .  A
C938        C939   1.403       .  A
C938        H943   1.085       .  S
C939        C940   1.415       .  A
C939        C946   1.443       .  S
C940        C941   1.414       .  A
C941        C942   1.399       .  A
C941        H944   1.084       .  S
C942        C945   1.445   1_565  S
C945        N947   1.157       .  T
C946        N948   1.157       .  T
C949        C950   1.405       .  A
C949        C954   1.417       .  A
C950        C951   1.404       .  A
C950        H955   1.083       .  S
C951        C952   1.420       .  A
C951        C958   1.444       .  S
C952        C953   1.410       .  A
C953        C954   1.405       .  A
C953        H956   1.085       .  S
C954        C957   1.444       .  S
C957        N959   1.157       .  T
C958        N960   1.157       .  T
C961        C962   1.412       .  A
C961        C966   1.416       .  A
C962        C963   1.401       .  A
C962        H967   1.084       .  S
C963        C964   1.405       .  A
C963        C970   1.442       .  S
C964        C965   1.402       .  A
C965        C966   1.392       .  A
C965        H968   1.086       .  S
C966        C969   1.445       .  S
C969        N971   1.157       .  T
C970        N972   1.157       .  T
C973        C974   1.408   1_455  A
C973        C978   1.411       .  A
C974        C975   1.393       .  A
C974        H979   1.086       .  S
C975        C976   1.407   1_655  A
C975        C982   1.445       .  S
C976        C977   1.408       .  A
C977        C978   1.407       .  A
C977        H980   1.085       .  S
C978        C981   1.443       .  S
C981        N983   1.157       .  T
C982        N984   1.157       .  T
C985        C986   1.406       .  A
C985        C990   1.405       .  A
C986        C987   1.403       .  A
C986        H991   1.086       .  S
C987        C988   1.416       .  A
C987        C994   1.443       .  S
C988        C989   1.415       .  A
C989        C990   1.399       .  A
C989        H992   1.084       .  S
C990        C993   1.445       .  S
C993        N995   1.157       .  T
C994        N996   1.157       .  T
C997        C998   1.405       .  A
C997       C1002   1.421       .  A
C998        C999   1.401       .  A
C998       H1003   1.084       .  S
C999       C1000   1.421       .  A
C999       C1006   1.445       .  S
C1000      C1001   1.405       .  A
C1001      C1002   1.405       .  A
C1001      H1004   1.085       .  S
C1002      C1005   1.442       .  S
C1005      N1007   1.157       .  T
C1006      N1008   1.157       .  T
C1009      C1010   1.405       .  A
C1009      C1014   1.418       .  A
C1010      C1011   1.397       .  A
C1010      H1015   1.085       .  S
C1011      C1012   1.411       .  A
C1011      C1018   1.445       .  S
C1012      C1013   1.401       .  A
C1013      C1014   1.404       .  A
C1013      H1016   1.085       .  S
C1014      C1017   1.444   1_565  S
C1017      N1019   1.157       .  T
C1018      N1020   1.157       .  T
C1021      C1022   1.402       .  A
C1021      C1026   1.423       .  A
C1022      C1023   1.404       .  A
C1022      H1027   1.085       .  S
C1023      C1024   1.423       .  A
C1023      C1030   1.444       .  S
C1024      C1025   1.402       .  A
C1025      C1026   1.396       .  A
C1025      H1028   1.085       .  S
C1026      C1029   1.446       .  S
C1029      N1031   1.158       .  T
C1030      N1032   1.157       .  T
C1033      C1034   1.401       .  A
C1033      C1038   1.409       .  A
C1034      C1035   1.396       .  A
C1034      H1039   1.086       .  S
C1035      C1036   1.415       .  A
C1035      C1042   1.445       .  S
C1036      C1037   1.406       .  A
C1037      C1038   1.401       .  A
C1037      H1040   1.085       .  S
C1038      C1041   1.444       .  S
C1041      N1043   1.157       .  T
C1042      N1044   1.157       .  T
C1045      C1046   1.407       .  A
C1045      C1050   1.419       .  A
C1046      C1047   1.402       .  A
C1046      H1051   1.084       .  S
C1047      C1048   1.414       .  A
C1047      C1054   1.444       .  S
C1048      C1049   1.402       .  A
C1049      C1050   1.401       .  A
C1049      H1052   1.085       .  S
C1050      C1053   1.445   1_545  S
C1053      N1055   1.157       .  T
C1054      N1056   1.157       .  T
C1057      C1058   1.404       .  A
C1057      C1062   1.416       .  A
C1058      C1059   1.405   1_565  A
C1058      H1063   1.085   1_565  S
C1059      C1060   1.421   1_545  A
C1059      C1066   1.444       .  S
C1060      C1061   1.409       .  A
C1061      C1062   1.406       .  A
C1061      H1064   1.085       .  S
C1062      C1065   1.444       .  S
C1065      N1067   1.157       .  T
C1066      N1068   1.157       .  T
C1069      C1070   1.408       .  A
C1069      C1074   1.411       .  A
C1070      C1071   1.399       .  A
C1070      H1075   1.085       .  S
C1071      C1072   1.407       .  A
C1071      C1078   1.444       .  S
C1072      C1073   1.407       .  A
C1073      C1074   1.404       .  A
C1073      H1076   1.085       .  S
C1074      C1077   1.444       .  S
C1077      N1079   1.157       .  T
C1078      N1080   1.157       .  T
C1081      C1082   1.399       .  A
C1081      C1086   1.415       .  A
C1082      C1083   1.402       .  A
C1082      H1087   1.084       .  S
C1083      C1084   1.422       .  A
C1083      C1090   1.444       .  S
C1084      C1085   1.405       .  A
C1085      C1086   1.395       .  A
C1085      H1088   1.084       .  S
C1086      C1089   1.446       .  S
C1089      N1091   1.157       .  T
C1090      N1092   1.157       .  T
C1093      C1094   1.402       .  A
C1093      C1098   1.415       .  A
C1094      C1095   1.401       .  A
C1094      H1099   1.085       .  S
C1095      C1096   1.421       .  A
C1095      C1102   1.445       .  S
C1096      C1097   1.409       .  A
C1097      C1098   1.407       .  A
C1097      H1100   1.084       .  S
C1098      C1101   1.444       .  S
C1101      N1103   1.157       .  T
C1102      N1104   1.157       .  T
C1105      C1106   1.404       .  A
C1105      C1110   1.425       .  A
C1106      C1107   1.402       .  A
C1106      H1111   1.084       .  S
C1107      C1108   1.419       .  A
C1107      C1114   1.445       .  S
C1108      C1109   1.399       .  A
C1109      C1110   1.399       .  A
C1109      H1112   1.085       .  S
C1110      C1113   1.446       .  S
C1113      N1115   1.158       .  T
C1114      N1116   1.157       .  T
C1117      C1118   1.407       .  A
C1117      C1122   1.409       .  A
C1118      C1119   1.401       .  A
C1118      H1123   1.085       .  S
C1119      C1120   1.409       .  A
C1119      C1126   1.444   1_545  S
C1120      C1121   1.407       .  A
C1121      C1122   1.402       .  A
C1121      H1124   1.085       .  S
C1122      C1125   1.444       .  S
C1125      N1127   1.157       .  T
C1126      N1128   1.157       .  T
C1129      C1130   1.402       .  A
C1129      C1134   1.407       .  A
C1130      C1131   1.394       .  A
C1130      H1135   1.086       .  S
C1131      C1132   1.416       .  A
C1131      C1138   1.445       .  S
C1132      C1133   1.412       .  A
C1133      C1134   1.405       .  A
C1133      H1136   1.084       .  S
C1134      C1137   1.443       .  S
C1137      N1139   1.157   1_565  T
C1138      N1140   1.157       .  T
C1141      C1142   1.402       .  A
C1141      C1146   1.412       .  A
C1142      C1143   1.409       .  A
C1142      H1147   1.084       .  S
C1143      C1144   1.417       .  A
C1143      C1150   1.443       .  S
C1144      C1145   1.401       .  A
C1145      C1146   1.399       .  A
C1145      H1148   1.085       .  S
C1146      C1149   1.445       .  S
C1149      N1151   1.157       .  T
C1150      N1152   1.157       .  T
C1153      C1154   1.407       .  A
C1153      C1158   1.411       .  A
C1154      C1155   1.396       .  A
C1154      H1159   1.085       .  S
C1155      C1156   1.411       .  A
C1155      C1162   1.446       .  S
C1156      C1157   1.408       .  A
C1157      C1158   1.407       .  A
C1157      H1160   1.085       .  S
C1158      C1161   1.443       .  S
C1161      N1163   1.157       .  T
C1162      N1164   1.157       .  T
C1165      C1166   1.397       .  A
C1165      C1170   1.413       .  A
C1166      C1167   1.400       .  A
C1166      H1171   1.085       .  S
C1167      C1168   1.419       .  A
C1167      C1174   1.444       .  S
C1168      C1169   1.402       .  A
C1169      C1170   1.397       .  A
C1169      H1172   1.085       .  S
C1170      C1173   1.445       .  S
C1173      N1175   1.157       .  T
C1174      N1176   1.157       .  T
C1177      C1178   1.405       .  A
C1177      C1182   1.410       .  A
C1178      C1179   1.399   1_556  A
C1178      H1183   1.085       .  S
C1179      C1180   1.412       .  A
C1179      C1186   1.445       .  S
C1180      C1181   1.408       .  A
C1181      C1182   1.406   1_554  A
C1181      H1184   1.085       .  S
C1182      C1185   1.443       .  S
C1185      N1187   1.157       .  T
C1186      N1188   1.157       .  T
C1189      C1190   1.412       .  A
C1189      C1194   1.415       .  A
C1190      C1191   1.396       .  A
C1190      H1195   1.084       .  S
C1191      C1192   1.409       .  A
C1191      C1198   1.445       .  S
C1192      C1193   1.409       .  A
C1193      C1194   1.404       .  A
C1193      H1196   1.085       .  S
C1194      C1197   1.443       .  S
C1197      N1199   1.157       .  T
C1198      N1200   1.157       .  T
C1201      C1202   1.406       .  A
C1201      C1206   1.416       .  A
C1202      C1203   1.405       .  A
C1202      H1207   1.082       .  S
C1203      C1204   1.420       .  A
C1203      C1210   1.445       .  S
C1204      C1205   1.409       .  A
C1205      C1206   1.403       .  A
C1205      H1208   1.084       .  S
C1206      C1209   1.443       .  S
C1209      N1211   1.157       .  T
C1210      N1212   1.157       .  T
C1213      C1214   1.407       .  A
C1213      C1218   1.407       .  A
C1214      C1215   1.400       .  A
C1214      H1219   1.085       .  S
C1215      C1216   1.415       .  A
C1215      C1222   1.444       .  S
C1216      C1217   1.413       .  A
C1217      C1218   1.399       .  A
C1217      H1220   1.084       .  S
C1218      C1221   1.445       .  S
C1221      N1223   1.157       .  T
C1222      N1224   1.158       .  T
C1225      C1226   1.406       .  A
C1225      C1230   1.413       .  A
C1226      C1227   1.404       .  A
C1226      H1231   1.085       .  S
C1227      C1228   1.420       .  A
C1227      C1234   1.444       .  S
C1228      C1229   1.412       .  A
C1229      C1230   1.406       .  A
C1229      H1232   1.084       .  S
C1230      C1233   1.444       .  S
C1233      N1235   1.157       .  T
C1234      N1236   1.157       .  T
C1237      C1238   1.409       .  A
C1237      C1242   1.418       .  A
C1238      C1239   1.403       .  A
C1238      H1243   1.084       .  S
C1239      C1240   1.407       .  A
C1239      C1246   1.443   1_556  S
C1240      C1241   1.401       .  A
C1241      C1242   1.399       .  A
C1241      H1244   1.085       .  S
C1242      C1245   1.445       .  S
C1245      N1247   1.157       .  T
C1246      N1248   1.157       .  T
C1249      C1250   1.411       .  A
C1249      C1254   1.410       .  A
C1250      C1251   1.404       .  A
C1250      H1255   1.084       .  S
C1251      C1252   1.414       .  A
C1251      C1258   1.443       .  S
C1252      C1253   1.414       .  A
C1253      C1254   1.400       .  A
C1253      H1256   1.083       .  S
C1254      C1257   1.445       .  S
C1257      N1259   1.157       .  T
C1258      N1260   1.157       .  T
C1261      C1262   1.411       .  A
C1261      C1266   1.420       .  A
C1262      C1263   1.405       .  A
C1262      H1267   1.084       .  S
C1263      C1264   1.418       .  A
C1263      C1270   1.445       .  S
C1264      C1265   1.409       .  A
C1265      C1266   1.408       .  A
C1265      H1268   1.084       .  S
C1266      C1269   1.444       .  S
C1269      N1271   1.157       .  T
C1270      N1272   1.158       .  T
C1273      C1274   1.409   1_455  A
C1273      C1278   1.415       .  A
C1274      C1275   1.404       .  A
C1274      H1279   1.084       .  S
C1275      C1276   1.408       .  A
C1275      C1282   1.443       .  S
C1276      C1277   1.401   1_655  A
C1277      C1278   1.396       .  A
C1277      H1280   1.086       .  S
C1278      C1281   1.445       .  S
C1281      N1283   1.157       .  T
C1282      N1284   1.157       .  T
C1285      C1286   1.406   1_455  A
C1285      C1290   1.421       .  A
C1286      C1287   1.401       .  A
C1286      H1291   1.084       .  S
C1287      C1288   1.411   1_655  A
C1287      C1294   1.445       .  S
C1288      C1289   1.398       .  A
C1289      C1290   1.402       .  A
C1289      H1292   1.085       .  S
C1290      C1293   1.443       .  S
C1293      N1295   1.157       .  T
C1294      N1296   1.157       .  T
C1297      C1298   1.403       .  A
C1297      C1302   1.415       .  A
C1298      C1299   1.402       .  A
C1298      H1303   1.085       .  S
C1299      C1300   1.421       .  A
C1299      C1306   1.445       .  S
C1300      C1301   1.409       .  A
C1301      C1302   1.406       .  A
C1301      H1304   1.084       .  S
C1302      C1305   1.443       .  S
C1305      N1307   1.157       .  T
C1306      N1308   1.157       .  T
C1309      C1310   1.407       .  A
C1309      C1314   1.420       .  A
C1310      C1311   1.403       .  A
C1310      H1315   1.083       .  S
C1311      C1312   1.414       .  A
C1311      C1318   1.444       .  S
C1312      C1313   1.406       .  A
C1313      C1314   1.409       .  A
C1313      H1316   1.085       .  S
C1314      C1317   1.444       .  S
C1317      N1319   1.157       .  T
C1318      N1320   1.157       .  T
C1321      C1322   1.404       .  A
C1321      C1326   1.407       .  A
C1322      C1323   1.399       .  A
C1322      H1327   1.085       .  S
C1323      C1324   1.412       .  A
C1323      C1330   1.444       .  S
C1324      C1325   1.409       .  A
C1325      C1326   1.402       .  A
C1325      H1328   1.084       .  S
C1326      C1329   1.444       .  S
C1329      N1331   1.157       .  T
C1330      N1332   1.157       .  T
C1333      C1334   1.408       .  A
C1333      C1338   1.407       .  A
C1334      C1335   1.400       .  A
C1334      H1339   1.085       .  S
C1335      C1336   1.415       .  A
C1335      C1342   1.444       .  S
C1336      C1337   1.414       .  A
C1337      C1338   1.398       .  A
C1337      H1340   1.084       .  S
C1338      C1341   1.445       .  S
C1341      N1343   1.157       .  T
C1342      N1344   1.157       .  T
C1345      C1346   1.398       .  A
C1345      C1350   1.419       .  A
C1346      C1347   1.399       .  A
C1346      H1351   1.086       .  S
C1347      C1348   1.427       .  A
C1347      C1354   1.446       .  S
C1348      C1349   1.402       .  A
C1349      C1350   1.400       .  A
C1349      H1352   1.085       .  S
C1350      C1353   1.445       .  S
C1353      N1355   1.157       .  T
C1354      N1356   1.158       .  T
C1357      C1358   1.408       .  A
C1357      C1362   1.407       .  A
C1358      C1359   1.403       .  A
C1358      H1363   1.085       .  S
C1359      C1360   1.415       .  A
C1359      C1366   1.443       .  S
C1360      C1361   1.414       .  A
C1361      C1362   1.397       .  A
C1361      H1364   1.084       .  S
C1362      C1365   1.445       .  S
C1365      N1367   1.157       .  T
C1366      N1368   1.157       .  T
C1369      C1370   1.410       .  A
C1369      C1374   1.415       .  A
C1370      C1371   1.401       .  A
C1370      H1375   1.085       .  S
C1371      C1372   1.406       .  A
C1371      C1378   1.443       .  S
C1372      C1373   1.402       .  A
C1373      C1374   1.397       .  A
C1373      H1376   1.085       .  S
C1374      C1377   1.444       .  S
C1377      N1379   1.157       .  T
C1378      N1380   1.157       .  T
C1381      C1382   1.400       .  A
C1381      C1386   1.420       .  A
C1382      C1383   1.400       .  A
C1382      H1387   1.086   1_565  S
C1383      C1384   1.426       .  A
C1383      C1390   1.446       .  S
C1384      C1385   1.402       .  A
C1385      C1386   1.399       .  A
C1385      H1388   1.085       .  S
C1386      C1389   1.445       .  S
C1389      N1391   1.157       .  T
C1390      N1392   1.158       .  T
C1393      C1394   1.410       .  A
C1393      C1398   1.421       .  A
C1394      C1395   1.408       .  A
C1394      H1399   1.084       .  S
C1395      C1396   1.417       .  A
C1395      C1402   1.444       .  S
C1396      C1397   1.405       .  A
C1397      C1398   1.406       .  A
C1397      H1400   1.085       .  S
C1398      C1401   1.444       .  S
C1401      N1403   1.157       .  T
C1402      N1404   1.157       .  T
C1405      C1406   1.406       .  A
C1405      C1410   1.423       .  A
C1406      C1407   1.402       .  A
C1406      H1411   1.084       .  S
C1407      C1408   1.413       .  A
C1407      C1414   1.445       .  S
C1408      C1409   1.395       .  A
C1409      C1410   1.396       .  A
C1409      H1412   1.085       .  S
C1410      C1413   1.445       .  S
C1413      N1415   1.157       .  T
C1414      N1416   1.157       .  T
C1417      C1418   1.405       .  A
C1417      C1422   1.409       .  A
C1418      C1419   1.400       .  A
C1418      H1423   1.085       .  S
C1419      C1420   1.413       .  A
C1419      C1426   1.445       .  S
C1420      C1421   1.410       .  A
C1421      C1422   1.407       .  A
C1421      H1424   1.083       .  S
C1422      C1425   1.443       .  S
C1425      N1427   1.157       .  T
C1426      N1428   1.157       .  T
C1429      C1430   1.407       .  A
C1429      C1434   1.406       .  A
C1430      C1431   1.399       .  A
C1430      H1435   1.086       .  S
C1431      C1432   1.414       .  A
C1431      C1438   1.444       .  S
C1432      C1433   1.414       .  A
C1433      C1434   1.400       .  A
C1433      H1436   1.085       .  S
C1434      C1437   1.444       .  S
C1437      N1439   1.157       .  T
C1438      N1440   1.157       .  T
C1441      C1442   1.409       .  A
C1441      C1446   1.423       .  A
C1442      C1443   1.407       .  A
C1442      H1447   1.084       .  S
C1443      C1444   1.416       .  A
C1443      C1450   1.444       .  S
C1444      C1445   1.403       .  A
C1445      C1446   1.403       .  A
C1445      H1448   1.085       .  S
C1446      C1449   1.445       .  S
C1449      N1451   1.157       .  T
C1450      N1452   1.157       .  T
C1453      C1454   1.398       .  A
C1453      C1458   1.408       .  A
C1454      C1455   1.394       .  A
C1454      H1459   1.085       .  S
C1455      C1456   1.418       .  A
C1455      C1462   1.446       .  S
C1456      C1457   1.407       .  A
C1457      C1458   1.404       .  A
C1457      H1460   1.084       .  S
C1458      C1461   1.442       .  S
C1461      N1463   1.157       .  T
C1462      N1464   1.157       .  T
C1465      C1466   1.409       .  A
C1465      C1470   1.420       .  A
C1466      C1467   1.404       .  A
C1466      H1471   1.084       .  S
C1467      C1468   1.407       .  A
C1467      C1474   1.443       .  S
C1468      C1469   1.399       .  A
C1469      C1470   1.395       .  A
C1469      H1472   1.086       .  S
C1470      C1473   1.446       .  S
C1473      N1475   1.158       .  T
C1474      N1476   1.157       .  T
C1477      C1478   1.403       .  A
C1477      C1482   1.413       .  A
C1478      C1479   1.404       .  A
C1478      H1483   1.085       .  S
C1479      C1480   1.422       .  A
C1479      C1486   1.444       .  S
C1480      C1481   1.409       .  A
C1481      C1482   1.405       .  A
C1481      H1484   1.084       .  S
C1482      C1485   1.443       .  S
C1485      N1487   1.157       .  T
C1486      N1488   1.157       .  T
C1489      C1490   1.407   1_565  A
C1489      C1494   1.410       .  A
C1490      C1491   1.398       .  A
C1490      H1495   1.085       .  S
C1491      C1492   1.410       .  A
C1491      C1498   1.445       .  S
C1492      C1493   1.408   1_545  A
C1493      C1494   1.405       .  A
C1493      H1496   1.085       .  S
C1494      C1497   1.443       .  S
C1497      N1499   1.157       .  T
C1498      N1500   1.157       .  T
C1501      C1502   1.403       .  A
C1501      C1506   1.423       .  A
C1502      C1503   1.399       .  A
C1502      H1507   1.084       .  S
C1503      C1504   1.417       .  A
C1503      C1510   1.446       .  S
C1504      C1505   1.399       .  A
C1505      C1506   1.400       .  A
C1505      H1508   1.085       .  S
C1506      C1509   1.445       .  S
C1509      N1511   1.158       .  T
C1510      N1512   1.157       .  T
C1513      C1514   1.406       .  A
C1513      C1518   1.416       .  A
C1514      C1515   1.405       .  A
C1514      H1519   1.085       .  S
C1515      C1516   1.420       .  A
C1515      C1522   1.444   1_545  S
C1516      C1517   1.410       .  A
C1517      C1518   1.404       .  A
C1517      H1520   1.084       .  S
C1518      C1521   1.444       .  S
C1521      N1523   1.157       .  T
C1522      N1524   1.157       .  T
C1525      C1526   1.407       .  A
C1525      C1530   1.403       .  A
C1526      C1527   1.397       .  A
C1526      H1531   1.085       .  S
C1527      C1528   1.413       .  A
C1527      C1534   1.443       .  S
C1528      C1529   1.415       .  A
C1529      C1530   1.397       .  A
C1529      H1532   1.084       .  S
C1530      C1533   1.445       .  S
C1533      N1535   1.157       .  T
C1534      N1536   1.157       .  T
C1537      C1538   1.406       .  A
C1537      C1542   1.409       .  A
C1538      C1539   1.397       .  A
C1538      H1543   1.085   1_556  S
C1539      C1540   1.411       .  A
C1539      C1546   1.445       .  S
C1540      C1541   1.409       .  A
C1541      C1542   1.406       .  A
C1541      H1544   1.084       .  S
C1542      C1545   1.443       .  S
C1545      N1547   1.157       .  T
C1546      N1548   1.157       .  T
C1549      C1550   1.398       .  A
C1549      C1554   1.421       .  A
C1550      C1551   1.397       .  A
C1550      H1555   1.085       .  S
C1551      C1552   1.420       .  A
C1551      C1558   1.446       .  S
C1552      C1553   1.399       .  A
C1553      C1554   1.402       .  A
C1553      H1556   1.085       .  S
C1554      C1557   1.445       .  S
C1557      N1559   1.157       .  T
C1558      N1560   1.157       .  T
C1561      C1562   1.404       .  A
C1561      C1566   1.406       .  A
C1562      C1563   1.393       .  A
C1562      H1567   1.086       .  S
C1563      C1564   1.412       .  A
C1563      C1570   1.445       .  S
C1564      C1565   1.411       .  A
C1565      C1566   1.401       .  A
C1565      H1568   1.085       .  S
C1566      C1569   1.444       .  S
C1569      N1571   1.157       .  T
C1570      N1572   1.157       .  T
C1573      C1574   1.404       .  A
C1573      C1578   1.424       .  A
C1574      C1575   1.402       .  A
C1574      H1579   1.084       .  S
C1575      C1576   1.415       .  A
C1575      C1582   1.444       .  S
C1576      C1577   1.397       .  A
C1577      C1578   1.400       .  A
C1577      H1580   1.085       .  S
C1578      C1581   1.445       .  S
C1581      N1583   1.158       .  T
C1582      N1584   1.157       .  T
C1585      C1586   1.408       .  A
C1585      C1590   1.411       .  A
C1586      C1587   1.402       .  A
C1586      H1591   1.085       .  S
C1587      C1588   1.409       .  A
C1587      C1594   1.443       .  S
C1588      C1589   1.405       .  A
C1589      C1590   1.398       .  A
C1589      H1592   1.085       .  S
C1590      C1593   1.445   1_455  S
C1593      N1595   1.157       .  T
C1594      N1596   1.157       .  T
C1597      C1598   1.403       .  A
C1597      C1602   1.408       .  A
C1598      C1599   1.408       .  A
C1598      H1603   1.085       .  S
C1599      C1600   1.418       .  A
C1599      C1606   1.444       .  S
C1600      C1601   1.406       .  A
C1601      C1602   1.394       .  A
C1601      H1604   1.085       .  S
C1602      C1605   1.445       .  S
C1605      N1607   1.157       .  T
C1606      N1608   1.158       .  T
C1609      C1610   1.403       .  A
C1609      C1614   1.420       .  A
C1610      C1611   1.401       .  A
C1610      H1615   1.084       .  S
C1611      C1612   1.413       .  A
C1611      C1618   1.444       .  S
C1612      C1613   1.403       .  A
C1613      C1614   1.412       .  A
C1613      H1616   1.084       .  S
C1614      C1617   1.443       .  S
C1617      N1619   1.157       .  T
C1618      N1620   1.157       .  T
C1621      C1622   1.401       .  A
C1621      C1626   1.422       .  A
C1622      C1623   1.398       .  A
C1622      H1627   1.084       .  S
C1623      C1624   1.418       .  A
C1623      C1630   1.445       .  S
C1624      C1625   1.398       .  A
C1625      C1626   1.399       .  A
C1625      H1628   1.085       .  S
C1626      C1629   1.445       .  S
C1629      N1631   1.158       .  T
C1630      N1632   1.157       .  T
C1633      C1634   1.411       .  A
C1633      C1638   1.410       .  A
C1634      C1635   1.403       .  A
C1634      H1639   1.085       .  S
C1635      C1636   1.413       .  A
C1635      C1642   1.443       .  S
C1636      C1637   1.415       .  A
C1637      C1638   1.399       .  A
C1637      H1640   1.084       .  S
C1638      C1641   1.445       .  S
C1641      N1643   1.158       .  T
C1642      N1644   1.157       .  T
C1645      C1646   1.406       .  A
C1645      C1650   1.416       .  A
C1646      C1647   1.404       .  A
C1646      H1651   1.085       .  S
C1647      C1648   1.420       .  A
C1647      C1654   1.444       .  S
C1648      C1649   1.411       .  A
C1649      C1650   1.408       .  A
C1649      H1652   1.084       .  S
C1650      C1653   1.444       .  S
C1653      N1655   1.157       .  T
C1654      N1656   1.157       .  T
C1657      C1658   1.405       .  A
C1657      C1662   1.412       .  A
C1658      C1659   1.399       .  A
C1658      H1663   1.085       .  S
C1659      C1660   1.412       .  A
C1659      C1666   1.445       .  S
C1660      C1661   1.408       .  A
C1661      C1662   1.409       .  A
C1661      H1664   1.085       .  S
C1662      C1665   1.443       .  S
C1665      N1667   1.157       .  T
C1666      N1668   1.157       .  T
C1669      C1670   1.395       .  A
C1669      C1674   1.413       .  A
C1670      C1671   1.397       .  A
C1670      H1675   1.085       .  S
C1671      C1672   1.423       .  A
C1671      C1678   1.445       .  S
C1672      C1673   1.403       .  A
C1673      C1674   1.398       .  A
C1673      H1676   1.085       .  S
C1674      C1677   1.445       .  S
C1677      N1679   1.157       .  T
C1678      N1680   1.157   1_554  T
C1681      C1682   1.397       .  A
C1681      C1686   1.416       .  A
C1682      C1683   1.399       .  A
C1682      H1687   1.085       .  S
C1683      C1684   1.425       .  A
C1683      C1690   1.445       .  S
C1684      C1685   1.402       .  A
C1685      C1686   1.399       .  A
C1685      H1688   1.085       .  S
C1686      C1689   1.445       .  S
C1689      N1691   1.157       .  T
C1690      N1692   1.158       .  T
C1693      C1694   1.400       .  A
C1693      C1698   1.418       .  A
C1694      C1695   1.399       .  A
C1694      H1699   1.086       .  S
C1695      C1696   1.414       .  A
C1695      C1702   1.444       .  S
C1696      C1697   1.403       .  A
C1697      C1698   1.411       .  A
C1697      H1700   1.085       .  S
C1698      C1701   1.443       .  S
C1701      N1703   1.157       .  T
C1702      N1704   1.157       .  T
C1705      C1706   1.404       .  A
C1705      C1710   1.418       .  A
C1706      C1707   1.398   1_554  A
C1706      H1711   1.084       .  S
C1707      C1708   1.410       .  A
C1707      C1714   1.445       .  S
C1708      C1709   1.399       .  A
C1709      C1710   1.401   1_556  A
C1709      H1712   1.085       .  S
C1710      C1713   1.444       .  S
C1713      N1715   1.157       .  T
C1714      N1716   1.157       .  T
C1717      C1718   1.410       .  A
C1717      C1722   1.413       .  A
C1718      C1719   1.404       .  A
C1718      H1723   1.085       .  S
C1719      C1720   1.414       .  A
C1719      C1726   1.443       .  S
C1720      C1721   1.412       .  A
C1721      C1722   1.399       .  A
C1721      H1724   1.085       .  S
C1722      C1725   1.445       .  S
C1725      N1727   1.158       .  T
C1726      N1728   1.157       .  T
C1729      C1730   1.400       .  A
C1729      C1734   1.407       .  A
C1730      C1731   1.404       .  A
C1730      H1735   1.085       .  S
C1731      C1732   1.422       .  A
C1731      C1738   1.444       .  S
C1732      C1733   1.410       .  A
C1733      C1734   1.399       .  A
C1733      H1736   1.084       .  S
C1734      C1737   1.444       .  S
C1737      N1739   1.157       .  T
C1738      N1740   1.157   1_545  T
C1741      C1742   1.405       .  A
C1741      C1746   1.412       .  A
C1742      C1743   1.408       .  A
C1742      H1747   1.085       .  S
C1743      C1744   1.418       .  A
C1743      C1750   1.444       .  S
C1744      C1745   1.409       .  A
C1745      C1746   1.406       .  A
C1745      H1748   1.085       .  S
C1746      C1749   1.444       .  S
C1749      N1751   1.157       .  T
C1750      N1752   1.157       .  T
C1753      C1754   1.401       .  A
C1753      C1758   1.411       .  A
C1754      C1755   1.407       .  A
C1754      H1759   1.085       .  S
C1755      C1756   1.422       .  A
C1755      C1762   1.444       .  S
C1756      C1757   1.407       .  A
C1757      C1758   1.395       .  A
C1757      H1760   1.084       .  S
C1758      C1761   1.446       .  S
C1761      N1763   1.157       .  T
C1762      N1764   1.158       .  T
C1765      C1766   1.410       .  A
C1765      C1770   1.422       .  A
C1766      C1767   1.408       .  A
C1766      H1771   1.084       .  S
C1767      C1768   1.417       .  A
C1767      C1774   1.443       .  S
C1768      C1769   1.405       .  A
C1769      C1770   1.404       .  A
C1769      H1772   1.085       .  S
C1770      C1773   1.444       .  S
C1773      N1775   1.157       .  T
C1774      N1776   1.157       .  T
C1777      C1778   1.402       .  A
C1777      C1782   1.407       .  A
C1778      C1779   1.401       .  A
C1778      H1783   1.085       .  S
C1779      C1780   1.418       .  A
C1779      C1786   1.445       .  S
C1780      C1781   1.410       .  A
C1781      C1782   1.403       .  A
C1781      H1784   1.084       .  S
C1782      C1785   1.444       .  S
C1785      N1787   1.157       .  T
C1786      N1788   1.157       .  T
C1789      C1790   1.410       .  A
C1789      C1794   1.410       .  A
C1790      C1791   1.403       .  A
C1790      H1795   1.085       .  S
C1791      C1792   1.414       .  A
C1791      C1798   1.444       .  S
C1792      C1793   1.413       .  A
C1793      C1794   1.401       .  A
C1793      H1796   1.085       .  S
C1794      C1797   1.445       .  S
C1797      N1799   1.157       .  T
C1798      N1800   1.157   1_565  T
C1801      C1802   1.408       .  A
C1801      C1806   1.407       .  A
C1802      C1803   1.400       .  A
C1802      H1807   1.086       .  S
C1803      C1804   1.413       .  A
C1803      C1810   1.444       .  S
C1804      C1805   1.411       .  A
C1805      C1806   1.400       .  A
C1805      H1808   1.085       .  S
C1806      C1809   1.443       .  S
C1809      N1811   1.157       .  T
C1810      N1812   1.157       .  T
C1813      C1814   1.408       .  A
C1813      C1818   1.420       .  A
C1814      C1815   1.406       .  A
C1814      H1819   1.084       .  S
C1815      C1816   1.415       .  A
C1815      C1822   1.444       .  S
C1816      C1817   1.403       .  A
C1817      C1818   1.406       .  A
C1817      H1820   1.085       .  S
C1818      C1821   1.445       .  S
C1821      N1823   1.157       .  T
C1822      N1824   1.157       .  T
C1825      C1826   1.410       .  A
C1825      C1830   1.420       .  A
C1826      C1827   1.404       .  A
C1826      H1831   1.084   1_655  S
C1827      C1828   1.406       .  A
C1827      C1834   1.443       .  S
C1828      C1829   1.399       .  A
C1829      C1830   1.397       .  A
C1829      H1832   1.086       .  S
C1830      C1833   1.445       .  S
C1833      N1835   1.157       .  T
C1834      N1836   1.157       .  T
C1837      C1838   1.407       .  A
C1837      C1842   1.426       .  A
C1838      C1839   1.405       .  A
C1838      H1843   1.084       .  S
C1839      C1840   1.417       .  A
C1839      C1846   1.444       .  S
C1840      C1841   1.399       .  A
C1841      C1842   1.397       .  A
C1841      H1844   1.085       .  S
C1842      C1845   1.445       .  S
C1845      N1847   1.158       .  T
C1846      N1848   1.157       .  T
C1849      C1850   1.402       .  A
C1849      C1854   1.409       .  A
C1850      C1851   1.396       .  A
C1850      H1855   1.085       .  S
C1851      C1852   1.415       .  A
C1851      C1858   1.445       .  S
C1852      C1853   1.409       .  A
C1853      C1854   1.407       .  A
C1853      H1856   1.083   1_655  S
C1854      C1857   1.443   1_655  S
C1857      N1859   1.157       .  T
C1858      N1860   1.157       .  T
C1861      C1862   1.404       .  A
C1861      C1866   1.415       .  A
C1862      C1863   1.405       .  A
C1862      H1867   1.085   1_655  S
C1863      C1864   1.422       .  A
C1863      C1870   1.444   1_655  S
C1864      C1865   1.410       .  A
C1865      C1866   1.405       .  A
C1865      H1868   1.084       .  S
C1866      C1869   1.444       .  S
C1869      N1871   1.157       .  T
C1870      N1872   1.157       .  T
C1873      C1874   1.403       .  A
C1873      C1878   1.424       .  A
C1874      C1875   1.398       .  A
C1874      H1879   1.084       .  S
C1875      C1876   1.413       .  A
C1875      C1882   1.445       .  S
C1876      C1877   1.396       .  A
C1877      C1878   1.398       .  A
C1877      H1880   1.085       .  S
C1878      C1881   1.446       .  S
C1881      N1883   1.158       .  T
C1882      N1884   1.157       .  T
C1885      C1886   1.408       .  A
C1885      C1890   1.423       .  A
C1886      C1887   1.406       .  A
C1886      H1891   1.085       .  S
C1887      C1888   1.419       .  A
C1887      C1894   1.444       .  S
C1888      C1889   1.404       .  A
C1889      C1890   1.402       .  A
C1889      H1892   1.085       .  S
C1890      C1893   1.445   1_455  S
C1893      N1895   1.158       .  T
C1894      N1896   1.157       .  T
C1897      C1898   1.405       .  A
C1897      C1902   1.408       .  A
C1898      C1899   1.395       .  A
C1898      H1903   1.085       .  S
C1899      C1900   1.411       .  A
C1899      C1906   1.445       .  S
C1900      C1901   1.409       .  A
C1901      C1902   1.404       .  A
C1901      H1904   1.084       .  S
C1902      C1905   1.443       .  S
C1905      N1907   1.157       .  T
C1906      N1908   1.157       .  T
