geometry optimzed in LAMMPS
_audit_creation_date              2020-11-30 
_audit_creation_method            'lammps2cif' 
_symmetry_space_group_name_H-M    'P1' 
_symmetry_Int_Tables_number       1 
_symmetry_cell_setting            triclinic 
loop_ 
_symmetry_equiv_pos_as_xyz 
  x,y,z 
_cell_length_a                    46.64186886 
_cell_length_b                    46.63094603579677 
_cell_length_c                    111.74963600743558 
_cell_angle_alpha                 90.02240003639933 
_cell_angle_beta                  89.95339945006015 
_cell_angle_gamma                 120.49370312946172 
loop_ 
_atom_site_label 
_atom_site_type_symbol 
_atom_site_fract_x 
_atom_site_fract_y 
_atom_site_fract_z 
_atom_site_charge 
C1          C  0.08455122  0.48509002  0.53760988     0.03000
C2          C  0.07162795  0.47145168  0.52627308    -0.13200
C3          C  0.08212876  0.45168263  0.52033751     0.00500
C4          C  0.10605794  0.44630437  0.52584489    -0.11700
C5          C  0.12002853  0.46082691  0.53689164     0.03000
C6          C  0.10885906  0.47980059  0.54284440    -0.11100
H7          H  0.05402218  0.47680840  0.52202355     0.08600
H8          H  0.11435164  0.43107545  0.52141877     0.06100
H9          H  0.11947241  0.49093187  0.55143268     0.06000
C10         C  0.90303459  0.54773394  0.45054588     0.03000
C11         C  0.91588079  0.56119435  0.46187711    -0.13200
C12         C  0.90761251  0.58313349  0.46735013     0.00500
C13         C  0.88610975  0.59116443  0.46148713    -0.11700
C14         C  0.87311351  0.57793605  0.45019300     0.03000
C15         C  0.88175467  0.55628832  0.44469921    -0.11100
H16         H  0.93229122  0.55460168  0.46641686     0.08600
H17         H  0.87962429  0.60807358  0.46571131     0.06100
H18         H  0.87158303  0.54574409  0.43601988     0.06000
O19         O  0.98124275  0.65933163  0.55830326    -0.85500
O20         O  0.99508325  0.63700246  0.57860281    -0.82500
C21         C  0.02437546  0.64295328  0.57670873     0.98000
O22         O  0.04875959  0.67203207  0.57777661    -0.82600
O23         O  0.08417844  0.73873699  0.57385570    -0.85200
C24         C  0.08402049  0.74206330  0.56261086     1.02500
O25         O  0.05766265  0.73601015  0.55726408    -0.78000
O26         O  0.99017575  0.70795210  0.55287302    -0.78200
C27         C  0.98285768  0.67870269  0.55015691     1.02500
O28         O  0.94886460  0.68818622  0.57216417    -0.85500
O29         O  0.96842748  0.67107588  0.59243832    -0.82500
C30         C  0.98762723  0.67385680  0.60084745     0.98000
O31         O  0.01733017  0.68171307  0.59856066    -0.82600
O32         O  0.05025295  0.74904748  0.59326254    -0.85200
C33         C  0.05844272  0.77543819  0.58753238     1.02500
O34         O  0.05342975  0.77444989  0.57638128    -0.78000
O35         O  0.98564407  0.74102200  0.57397409    -0.78100
C36         C  0.95593319  0.71747991  0.57483364     1.02400
Cr37       Cr  0.97634175  0.66675765  0.57538977     1.93700
Cr38       Cr  0.04745306  0.70977748  0.58517694     1.93200
Cr39       Cr  0.02112454  0.73727922  0.56583035     1.39100
O40         O  0.01502452  0.70461762  0.57552635    -1.23200
C41         C  0.23461101  0.21828115  0.12036421     0.03000
C42         C  0.21135879  0.22545348  0.11538152    -0.13200
C43         C  0.20390345  0.24747917  0.12119519     0.00500
C44         C  0.21890046  0.26150934  0.13214714    -0.11700
C45         C  0.24085306  0.25324306  0.13751186     0.03000
C46         C  0.24912926  0.23200524  0.13149308    -0.11100
H47         H  0.19987174  0.21473140  0.10685555     0.08600
H48         H  0.21309352  0.27864551  0.13658821     0.06100
H49         H  0.26658286  0.22594730  0.13548128     0.06000
C50         C  0.42525174  0.16897141  0.19962959     0.03000
C51         C  0.41254449  0.15703013  0.18808614    -0.13200
C52         C  0.42443080  0.13983080  0.18128325     0.00500
C53         C  0.44856603  0.13390916  0.18621050    -0.11700
C54         C  0.46168827  0.14584345  0.19758173     0.03000
C55         C  0.45010532  0.16341161  0.20426669    -0.11100
H56         H  0.39366686  0.16141614  0.18434427     0.08600
H57         H  0.45716997  0.11982368  0.18117678     0.06100
H58         H  0.46072745  0.17305052  0.21300689     0.06000
O59         O  0.36931249  0.02474472  0.06778669    -0.85500
O60         O  0.33919802  0.05854010  0.05991439    -0.82500
C61         C  0.32422866  0.03854662  0.05141612     0.98000
O62         O  0.29804256  0.01136342  0.05353539    -0.82600
O63         O  0.25468833  0.95365794  0.06526402    -0.85200
C64         C  0.26802640  0.93588801  0.06488701     1.02500
O65         O  0.29441820  0.94448773  0.07064541    -0.78000
O66         O  0.35455820  0.98553543  0.08117922    -0.78200
C67         C  0.37196238  0.00125493  0.07210002     1.02500
O68         O  0.36389505  0.04122227  0.09214785    -0.85500
O69         O  0.32633395  0.06736513  0.08458340    -0.82500
C70         C  0.30142555  0.06774238  0.08044391     0.98000
O71         O  0.28573095  0.04963110  0.07154683    -0.82600
O72         O  0.24732173  0.99134869  0.08374805    -0.85200
C73         C  0.24034936  0.96615976  0.09003391     1.02500
O74         O  0.25930134  0.95398667  0.08999191    -0.78000
O75         O  0.31942844  0.99959098  0.10001846    -0.78100
C76         C  0.34634431  0.02677760  0.10124086     1.02400
Cr77       Cr  0.34707523  0.04534221  0.07615001     1.93700
Cr78       Cr  0.27413859  0.00207397  0.06900575     1.93200
Cr79       Cr  0.30723312  0.97339899  0.08494774     1.39100
O80         O  0.30927229  0.00674401  0.07675598    -1.23200
O81         O  0.31018055  0.34621758  0.26005188    -0.85500
O82         O  0.28818963  0.36302797  0.24030634    -0.82500
C83         C  0.29397245  0.39181754  0.24316393     0.98000
O84         O  0.32267618  0.41674053  0.24193117    -0.82600
O85         O  0.38948895  0.45420149  0.24476730    -0.85200
C86         C  0.39223060  0.45436547  0.25601874     1.02500
O87         O  0.38666271  0.42821929  0.26144895    -0.78000
O88         O  0.36054393  0.36088347  0.26597721    -0.78200
C89         C  0.32998369  0.34907887  0.26820604     1.02500
O90         O  0.34192568  0.31863714  0.24542451    -0.85500
O91         O  0.32405347  0.33918639  0.22576285    -0.82500
C92         C  0.32565307  0.35867927  0.21771598     0.98000
O93         O  0.33147470  0.38747669  0.22041549    -0.82600
O94         O  0.39927060  0.42040780  0.22523669    -0.85200
C95         C  0.42591943  0.42914638  0.23088982     1.02500
O96         O  0.42503891  0.42448712  0.24208731    -0.78000
O97         O  0.39448839  0.35718390  0.24485010    -0.78100
C98         C  0.37193162  0.32744135  0.24310334     1.02400
Cr99       Cr  0.31893248  0.34488135  0.24289128     1.93700
Cr100      Cr  0.36015106  0.41697487  0.23374274     1.93200
Cr101      Cr  0.38902120  0.39191822  0.25290467     1.39100
O102        O  0.35599869  0.38449966  0.24319272    -1.23200
C103        C  0.19965058  0.26575845  0.36846888     0.03000
C104        C  0.21464816  0.28297405  0.35776772    -0.13200
C105        C  0.23479245  0.27450272  0.35095391     0.00500
C106        C  0.23888309  0.24817293  0.35480939    -0.11700
C107        C  0.22482540  0.23165341  0.36554334     0.03000
C108        C  0.20514941  0.24033249  0.37233057    -0.11100
H109        H  0.21076199  0.30284145  0.35481416     0.08600
H110        H  0.25355122  0.24076317  0.34953471     0.06100
H111        H  0.19429129  0.22744384  0.38066192     0.06000
C112        C  0.13146042  0.44297003  0.28443624     0.03000
C113        C  0.12288405  0.46509492  0.27918615    -0.13200
C114        C  0.10216055  0.47400985  0.28522824     0.00500
C115        C  0.09030735  0.46109007  0.29663511    -0.11700
C116        C  0.09861401  0.43926892  0.30213972     0.03000
C117        C  0.11964316  0.43061382  0.29605122    -0.11100
H118        H  0.13176410  0.47486352  0.27030742     0.08600
H119        H  0.07426455  0.46805642  0.30125909     0.06100
H120        H  0.12704684  0.41458571  0.30037733     0.06000
O121        O  0.00168168  0.39816033  0.41813020    -0.85500
O122        O  0.03575220  0.37009359  0.42784264    -0.82500
C123        C  0.01632632  0.35635202  0.43658828     0.98000
O124        O  0.98916066  0.32971627  0.43490198    -0.82600
O125        O  0.93070911  0.28500324  0.42379716    -0.85200
C126        C  0.91225165  0.29758377  0.42277603     1.02500
O127        O  0.92110507  0.32244650  0.41611300    -0.78000
O128        O  0.96283573  0.38037970  0.40444899    -0.78200
C129        C  0.97825121  0.39968475  0.41311178     1.02500
O130        O  0.01876516  0.38798291  0.39445913    -0.85500
O131        O  0.04489177  0.35203002  0.40401734    -0.82500
C132        C  0.04510952  0.32761260  0.40876705     0.98000
O133        O  0.02650412  0.31304358  0.41772502    -0.82600
O134        O  0.96786042  0.27288346  0.40616948    -0.85200
C135        C  0.94364066  0.26548783  0.39932922     1.02500
O136        O  0.93171426  0.28448354  0.39851302    -0.78000
O137        O  0.97754219  0.34202130  0.38737350    -0.78100
C138        C  0.00435409  0.36899979  0.38568266     1.02400
Cr139      Cr  0.02255703  0.37433582  0.41112852     1.93700
Cr140      Cr  0.97910527  0.30284655  0.42006366     1.93200
Cr141      Cr  0.95095675  0.33275316  0.40223712     1.39100
O142        O  0.98398369  0.33643058  0.41114965    -1.23200
C143        C  0.52613128  0.93283390  0.03457135     0.03000
C144        C  0.53139975  0.90860108  0.03996367    -0.13200
C145        C  0.55071625  0.89759834  0.03412443     0.00500
C146        C  0.56442965  0.91053313  0.02291605    -0.11700
C147        C  0.55987800  0.93497923  0.01746497     0.03000
C148        C  0.54086693  0.94629811  0.02340923    -0.11100
H149        H  0.52023242  0.89811479  0.04855106     0.08600
H150        H  0.57886032  0.90141363  0.01840821     0.06100
H151        H  0.53746333  0.96546342  0.01938833     0.06000
C152        C  0.47374686  0.12025126  0.95482207     0.03000
C153        C  0.45766949  0.10490091  0.96560427    -0.13200
C154        C  0.43734194  0.11475104  0.97142916     0.00500
C155        C  0.43354523  0.14028594  0.96651324    -0.11700
C156        C  0.44943936  0.15570889  0.95577206     0.03000
C157        C  0.46904098  0.14523194  0.94986851    -0.11100
H158        H  0.46094586  0.08540898  0.96943741     0.08600
H159        H  0.41786872  0.14790864  0.97099467     0.06100
H160        H  0.48096056  0.15679239  0.94146600     0.06000
O161        O  0.63032439  0.00927306  0.89445085    -0.85500
O162        O  0.66319673  0.97886347  0.90286547    -0.82500
C163        C  0.68625988  0.97577455  0.90731945     0.98000
O164        O  0.70368362  0.99483499  0.91577428    -0.82600
O165        O  0.74414308  0.05245829  0.90332243    -0.85200
C166        C  0.75291492  0.07845904  0.89725918     1.02500
O167        O  0.73620923  0.09302504  0.89778649    -0.78000
O168        O  0.67611144  0.05107564  0.88742064    -0.78200
C169        C  0.64889829  0.02460960  0.88565123     1.02500
O170        O  0.62384432  0.02605801  0.91884020    -0.85500
O171        O  0.65054006  0.98990296  0.92718696    -0.82500
C172        C  0.66713764  0.00848723  0.93583880     0.98000
O173        O  0.69453390  0.03454146  0.93377503    -0.82600
O174        O  0.74007383  0.09187870  0.92204844    -0.85200
C175        C  0.72890227  0.11160984  0.92231578     1.02500
O176        O  0.70230192  0.10435632  0.91700434    -0.78000
O177        O  0.64214292  0.06700616  0.90600979    -0.78100
C178        C  0.62364354  0.05114977  0.91482747     1.02400
Cr179      Cr  0.64479747  0.00378557  0.91079996     1.93700
Cr180      Cr  0.71795632  0.04313781  0.91822473     1.93200
Cr181      Cr  0.68858991  0.07610593  0.90259153     1.39100
O182        O  0.68386176  0.04113025  0.91053562    -1.23200
C183        C  0.85890904  0.60123985  0.70152013     0.03000
C184        C  0.87056141  0.61399310  0.68999778    -0.13200
C185        C  0.88797765  0.60244004  0.68317961     0.00500
C186        C  0.89274280  0.57721417  0.68781240    -0.11700
C187        C  0.88062805  0.56367496  0.69916866     0.03000
C188        C  0.86398909  0.57599441  0.70604284    -0.11100
H189        H  0.86644416  0.63320546  0.68639680     0.08600
H190        H  0.90639107  0.56841597  0.68262993     0.06100
H191        H  0.85466436  0.56567097  0.71484477     0.06000
C192        C  0.80720684  0.78281648  0.61809760     0.03000
C193        C  0.79833599  0.80495506  0.61307456    -0.13200
C194        C  0.77790361  0.81390285  0.61940579     0.00500
C195        C  0.76695081  0.80078797  0.63090864    -0.11700
C196        C  0.77414968  0.77749271  0.63573997     0.03000
C197        C  0.79461977  0.76883785  0.62940955    -0.11100
H198        H  0.80720002  0.81501732  0.60421410     0.08600
H199        H  0.75213017  0.80822466  0.63609324     0.06100
H200        H  0.80030763  0.75085753  0.63319485     0.06000
C201        C  0.58504934  0.89207722  0.78532261     0.03000
C202        C  0.59936467  0.90601738  0.79651316    -0.13200
C203        C  0.59163696  0.92807024  0.80232304     0.00500
C204        C  0.56907167  0.93558106  0.79696139    -0.11700
C205        C  0.55513483  0.92247866  0.78578592     0.03000
C206        C  0.56330876  0.90095440  0.77995015    -0.11100
H207        H  0.61623730  0.89952010  0.80073375     0.08600
H208        H  0.56207501  0.95161111  0.80156146     0.06100
H209        H  0.55263682  0.89103740  0.77125079     0.06000
C210        C  0.75466431  0.82410918  0.86952363     0.03000
C211        C  0.77757433  0.81567884  0.87405442    -0.13200
C212        C  0.78878656  0.79857979  0.86688589     0.00500
C213        C  0.77609184  0.78891919  0.85528965    -0.11700
C214        C  0.75304370  0.79687225  0.85066147     0.03000
C215        C  0.74217849  0.81420431  0.85785349    -0.11100
H216        H  0.78695298  0.82273504  0.88310465     0.08600
H217        H  0.78401072  0.77488955  0.84986736     0.06100
H218        H  0.72449518  0.82053418  0.85428418     0.06000
O219        O  0.71491578  0.69304288  0.74704567    -0.85500
O220        O  0.69422141  0.70731918  0.72637109    -0.82500
C221        C  0.67547099  0.70568910  0.71801076     0.98000
O222        O  0.64618612  0.69893858  0.72037581    -0.82600
O223        O  0.62016308  0.63142952  0.72395573    -0.85200
C224        C  0.61366018  0.60469369  0.72912353     1.02500
O225        O  0.61531633  0.60363330  0.74043778    -0.78000
O226        O  0.68055489  0.63954231  0.74576911    -0.78200
C227        C  0.70965155  0.66408179  0.74497185     1.02500
O228        O  0.67908744  0.71829846  0.76031842    -0.85500
O229        O  0.66260800  0.73781678  0.73978906    -0.82500
C230        C  0.63293643  0.72951131  0.74247960     0.98000
O231        O  0.60973330  0.69973620  0.74125719    -0.82600
O232        O  0.57768945  0.63133183  0.74226712    -0.85200
C233        C  0.57460635  0.62450211  0.75329630     1.02500
O234        O  0.60024195  0.63470262  0.75973027    -0.78000
O235        O  0.66718196  0.66868014  0.76638559    -0.78100
C236        C  0.67651635  0.69884901  0.76859748     1.02400
Cr237      Cr  0.68489280  0.71124551  0.74333371     1.93700
Cr238      Cr  0.61584552  0.66607340  0.73270747     1.93200
Cr239      Cr  0.64144690  0.63936165  0.75246806     1.39100
O240        O  0.64740129  0.67222332  0.74294795    -1.23200
C241        C  0.28297359  0.45207340  0.78668455     0.03000
C242        C  0.31400932  0.47066594  0.78090457    -0.13200
C243        C  0.34353830  0.47752062  0.78666236     0.00500
C244        C  0.34200186  0.46472508  0.79811633    -0.11700
C245        C  0.31141392  0.44496179  0.80387323     0.03000
C246        C  0.28196023  0.43893218  0.79817472    -0.11100
H247        H  0.31529500  0.47964965  0.77188038     0.08600
H248        H  0.36487636  0.47005502  0.80257256     0.06100
H249        H  0.25831935  0.42393436  0.80268304     0.06000
C250        C  0.04324833  0.25973085  0.86706935     0.03000
C251        C  0.04503867  0.27671259  0.85645859    -0.13200
C252        C  0.01579652  0.26986159  0.85047679     0.00500
C253        C  0.98491781  0.24578620  0.85510165    -0.11700
C254        C  0.98277056  0.22826640  0.86557323     0.03000
C255        C  0.01217758  0.23514689  0.87148595    -0.11100
H256        H  0.06905198  0.29525467  0.85292425     0.08600
H257        H  0.96233083  0.24072664  0.85050523     0.06100
H258        H  0.01095495  0.22155495  0.87950199     0.06000
O259        O  0.94967961  0.31480748  0.74955649    -0.85500
O260        O  0.98484132  0.33450448  0.72875991    -0.82500
C261        C  0.00124575  0.35297975  0.72015245     0.98000
O262        O  0.02264117  0.38312505  0.72217479    -0.82600
O263        O  0.98195150  0.40992291  0.72592278    -0.85200
C264        C  0.96207769  0.41668451  0.73115920     1.02500
O265        O  0.95874708  0.41369401  0.74242369    -0.78000
O266        O  0.92936130  0.34736165  0.74698414    -0.78200
C267        C  0.92567250  0.31866196  0.74658837     1.02500
O268        O  0.01131796  0.35326116  0.76262976    -0.85500
O269        O  0.04730318  0.36825917  0.74208484    -0.82500
C270        C  0.06890623  0.39841307  0.74416877     0.98000
O271        O  0.06161992  0.42075715  0.74270339    -0.82600
O272        O  0.02511003  0.45126783  0.74443008    -0.85200
C273        C  0.02103482  0.45375132  0.75548106     1.02500
O274        O  0.00415786  0.42788958  0.76173309    -0.78000
O275        O  0.97072679  0.36102219  0.76813756    -0.78100
C276        C  0.99384678  0.35537559  0.77076954     1.02400
Cr277      Cr  0.99812658  0.34544096  0.74567476     1.93700
Cr278      Cr  0.02102153  0.41372444  0.73453694     1.93200
Cr279      Cr  0.96777650  0.38687645  0.75419182     1.39100
O280        O  0.99569079  0.38208839  0.74484461    -1.23200
O281        O  0.34805669  0.38676292  0.89346742    -0.85500
O282        O  0.28579851  0.34995684  0.90282983    -0.82500
C283        C  0.26082147  0.32546720  0.90752492     0.98000
O284        O  0.26459889  0.30962341  0.91602914    -0.82600
O285        O  0.28436339  0.27164747  0.90394612    -0.85200
C286        C  0.30208396  0.26490456  0.89737108     1.02500
O287        O  0.33331535  0.28427415  0.89703443    -0.78000
O288        O  0.34435491  0.34159119  0.88622911    -0.78200
C289        C  0.34324183  0.36774230  0.88466704     1.02500
O290        O  0.37445563  0.39581425  0.91747795    -0.85500
O291        O  0.31173675  0.36612878  0.92675554    -0.82500
C292        C  0.31716788  0.35176253  0.93529681     0.98000
O293        O  0.31795369  0.32561055  0.93334396    -0.82600
O294        O  0.33276136  0.28308034  0.92189101    -0.85200
C295        C  0.36420819  0.29702389  0.92157565     1.02500
O296        O  0.38088026  0.32236395  0.91510712    -0.78000
O297        O  0.39696848  0.38065486  0.90352659    -0.78100
C298        C  0.39997833  0.39888288  0.91243557     1.02400
Cr299      Cr  0.33014534  0.37209075  0.91011189     1.93700
Cr300      Cr  0.30199854  0.30014735  0.91824100     1.93200
Cr301      Cr  0.36170981  0.33257046  0.90106194     1.39100
O302        O  0.33123932  0.33473103  0.90979484    -1.23200
C303        C  0.37750140  0.49534113  0.03311192     0.03000
C304        C  0.37801894  0.48057896  0.02216014    -0.13200
C305        C  0.34820835  0.45935138  0.01610498     0.00500
C306        C  0.31786559  0.45244418  0.02113823    -0.11700
C307        C  0.31679214  0.46672079  0.03204027     0.03000
C308        C  0.34673698  0.48842957  0.03793232    -0.11100
H309        H  0.40147118  0.48527376  0.01842294     0.08600
H310        H  0.29486496  0.43573701  0.01652294     0.06100
H311        H  0.34613055  0.49999685  0.04627191     0.06000
C312        C  0.61875804  0.54286599  0.95386557     0.03000
C313        C  0.64909559  0.54879011  0.94904092    -0.13200
C314        C  0.67929398  0.57178757  0.95442762     0.00500
C315        C  0.67902830  0.58849875  0.96481639    -0.11700
C316        C  0.64891839  0.58274498  0.96971452     0.03000
C317        C  0.61882670  0.56000517  0.96421546    -0.11100
H318        H  0.64920502  0.53556618  0.94108677     0.08600
H319        H  0.70231372  0.60613892  0.96907992     0.06100
H320        H  0.59557851  0.55602282  0.96789426     0.06000
O321        O  0.61694209  0.64176133  0.07748543    -0.85500
O322        O  0.65401682  0.66795695  0.05753654    -0.82500
C323        C  0.67173424  0.68885115  0.04973490     0.98000
O324        O  0.69380569  0.71796687  0.05279838    -0.82600
O325        O  0.65259341  0.74346476  0.05747909    -0.85200
C326        C  0.63133922  0.74784098  0.06293112     1.02500
O327        O  0.62629922  0.74195230  0.07405399    -0.78000
O328        O  0.59667266  0.67504394  0.07711712    -0.78200
C329        C  0.59277993  0.64648947  0.07582923     1.02500
O330        O  0.67740893  0.67665962  0.09158793    -0.85500
O331        O  0.71545050  0.69779108  0.07176737    -0.82500
C332        C  0.73584734  0.72651708  0.07581618     0.98000
O333        O  0.72934679  0.74952956  0.07482948    -0.82600
O334        O  0.69270792  0.77977020  0.07725545    -0.85200
C335        C  0.68835741  0.77936062  0.08843536     1.02500
O336        O  0.67037580  0.75197831  0.09365160    -0.78000
O337        O  0.63762206  0.68450948  0.09802319    -0.78100
C338        C  0.66042966  0.67797633  0.10007569     1.02400
Cr339      Cr  0.66575820  0.67371583  0.07461048     1.93700
Cr340      Cr  0.69028432  0.74496291  0.06620319     1.93200
Cr341      Cr  0.63482690  0.71297085  0.08501209     1.39100
O342        O  0.66339954  0.71047075  0.07528319    -1.23200
C343        C  0.71659999  0.15196213  0.70341224     0.03000
C344        C  0.71745709  0.13997453  0.69188578    -0.13200
C345        C  0.68803164  0.12199602  0.68518305     0.00500
C346        C  0.65786953  0.11607033  0.69004857    -0.11700
C347        C  0.65658845  0.12779783  0.70141176     0.03000
C348        C  0.68592620  0.14597911  0.70805161    -0.11100
H349        H  0.74083613  0.14438826  0.68818672     0.08600
H350        H  0.63511129  0.10222258  0.68492843     0.06100
H351        H  0.68489602  0.15579109  0.71671967     0.06000
C352        C  0.95405728  0.22304904  0.61974688     0.03000
C353        C  0.98582629  0.23166345  0.61543852    -0.13200
C354        C  0.01430452  0.25092711  0.62245947     0.00500
C355        C  0.01085096  0.26120916  0.63387851    -0.11700
C356        C  0.97941576  0.25246316  0.63839080     0.03000
C357        C  0.95111308  0.23356098  0.63127654    -0.11100
H358        H  0.98840885  0.22343856  0.60664025     0.08600
H359        H  0.03280435  0.27616923  0.63929425     0.06100
H360        H  0.92673920  0.22640821  0.63482479     0.06000
C361        C  0.37412653  0.92677922  0.53630116     0.03000
C362        C  0.37735940  0.94230459  0.52514179    -0.13200
C363        C  0.34928976  0.93259317  0.51787608     0.00500
C364        C  0.31799008  0.90765826  0.52187040    -0.11700
C365        C  0.31451536  0.89183018  0.53283598     0.03000
C366        C  0.34252104  0.90146030  0.54006197    -0.11100
H367        H  0.40164704  0.96133484  0.52202354     0.08600
H368        H  0.29618848  0.90042969  0.51638976     0.06100
H369        H  0.33970764  0.88924145  0.54859465     0.06000
C370        C  0.61855668  0.11798123  0.45328612     0.03000
C371        C  0.61855853  0.10538856  0.46475513    -0.13200
C372        C  0.64855253  0.11610527  0.47096455     0.00500
C373        C  0.67869839  0.13815890  0.46531475    -0.11700
C374        C  0.67931934  0.15108548  0.45394478     0.03000
C375        C  0.64915997  0.14098205  0.44795493    -0.11100
H376        H  0.59516970  0.08766071  0.46891604     0.08600
H377        H  0.70200029  0.14549341  0.46982957     0.06100
H378        H  0.64948656  0.15123647  0.43924070     0.06000
O379        O  0.68158861  0.05647165  0.56130641    -0.85500
O380        O  0.61896489  0.01843460  0.57081782    -0.82500
C381        C  0.59423387  0.99392412  0.57567774     0.98000
O382        O  0.59875187  0.97774500  0.58387480    -0.82600
O383        O  0.61807935  0.93999296  0.57110842    -0.85200
C384        C  0.63572479  0.93330129  0.56442065     1.02500
O385        O  0.66673821  0.95340594  0.56349159    -0.78000
O386        O  0.67747170  0.01197639  0.55328764    -0.78200
C387        C  0.67656261  0.03842576  0.55222759     1.02500
O388        O  0.70896766  0.06440521  0.58493147    -0.85500
O389        O  0.64632121  0.03385797  0.59449406    -0.82500
C390        C  0.65285663  0.01986944  0.60284917     0.98000
O391        O  0.65328164  0.99359959  0.60064546    -0.82600
O392        O  0.66741453  0.95099496  0.58832558    -0.85200
C393        C  0.69866001  0.96422310  0.58729458     1.02500
O394        O  0.71531952  0.99066789  0.58139285    -0.78000
O395        O  0.73099429  0.04966778  0.57061093    -0.78100
C396        C  0.73435575  0.06743740  0.57971046     1.02400
Cr397      Cr  0.66405500  0.04062802  0.57781144     1.93700
Cr398      Cr  0.63648646  0.96838279  0.58545375     1.93200
Cr399      Cr  0.69537298  0.00175483  0.56780341     1.39100
O400        O  0.66525217  0.00334038  0.57699548    -1.23200
O401        O  0.28170512  0.97604637  0.41494391    -0.85500
O402        O  0.31835941  0.99831343  0.39455038    -0.82500
C403        C  0.33568812  0.01816469  0.38639493     0.98000
O404        O  0.35903481  0.04717054  0.38901453    -0.82600
O405        O  0.32186607  0.07674878  0.39356033    -0.85200
C406        C  0.30153262  0.08282346  0.39875811     1.02500
O407        O  0.29698601  0.07832802  0.40994301    -0.78000
O408        O  0.26414409  0.01122399  0.41320540    -0.78200
C409        C  0.25844506  0.98181623  0.41271143     1.02500
O410        O  0.34319766  0.01040732  0.42859939    -0.85500
O411        O  0.38009903  0.02637390  0.40837420    -0.82500
C412        C  0.40308987  0.05559363  0.41101963     0.98000
O413        O  0.39781739  0.07950734  0.41036149    -0.82600
O414        O  0.36431782  0.11347731  0.41307613    -0.85200
C415        C  0.35932011  0.11394427  0.42419813     1.02500
O416        O  0.33995549  0.08720114  0.42963499    -0.78000
O417        O  0.30391237  0.01959037  0.43443981    -0.78100
C418        C  0.32622280  0.01266042  0.43691175     1.02400
Cr419      Cr  0.33086841  0.00561775  0.41160060     1.93700
Cr420      Cr  0.35880963  0.07666126  0.40220688     1.93200
Cr421      Cr  0.30330848  0.04851081  0.42112846     1.39100
O422        O  0.33104483  0.04369949  0.41168305    -1.23200
C423        C  0.04365963  0.82229526  0.37065914     0.03000
C424        C  0.04439301  0.80539169  0.36030422    -0.13200
C425        C  0.01535936  0.78586801  0.35355850     0.00500
C426        C  0.98541268  0.78331080  0.35729441    -0.11700
C427        C  0.98393078  0.79941272  0.36768204     0.03000
C428        C  0.01307895  0.81856436  0.37441508    -0.11100
H429        H  0.06765756  0.80756714  0.35745762     0.08600
H430        H  0.96304200  0.76876466  0.35204748     0.06100
H431        H  0.01211331  0.83123570  0.38238302     0.06000
C432        C  0.27920940  0.89653131  0.28456182     0.03000
C433        C  0.27577025  0.90988607  0.29544056    -0.13200
C434        C  0.30386287  0.93076694  0.30237839     0.00500
C435        C  0.33530396  0.93786334  0.29853443    -0.11700
C436        C  0.33921848  0.92445548  0.28789453     0.03000
C437        C  0.31111731  0.90360605  0.28093948    -0.11100
H438        H  0.25136997  0.90431469  0.29844932     0.08600
H439        H  0.35694351  0.95369591  0.30395975     0.06100
H440        H  0.31413215  0.89312324  0.27270089     0.06000
C441        C  0.94840032  0.78325725  0.11995168     0.03000
C442        C  0.98021254  0.80652792  0.11545084    -0.13200
C443        C  0.00895564  0.81702637  0.12245018     0.00500
C444        C  0.00581633  0.80323865  0.13385164    -0.11700
C445        C  0.97449040  0.78038985  0.13851098     0.03000
C446        C  0.94588475  0.77086102  0.13163977    -0.11100
H447        H  0.98264004  0.81659565  0.10653341     0.08600
H448        H  0.02790734  0.81022837  0.13912707     0.06100
H449        H  0.92168506  0.75391812  0.13545076     0.06000
C450        C  0.71681123  0.60271771  0.19988162     0.03000
C451        C  0.68465632  0.57972959  0.20403193    -0.13200
C452        C  0.65666580  0.57144092  0.19695973     0.00500
C453        C  0.66089577  0.58501475  0.18549085    -0.11700
C454        C  0.69276778  0.60724385  0.18109002     0.03000
C455        C  0.72068711  0.61635965  0.18833901    -0.11100
H456        H  0.68134180  0.56890246  0.21287372     0.08600
H457        H  0.63922181  0.57859421  0.18001708     0.06100
H458        H  0.74528153  0.63398017  0.18501249     0.06000
O459        O  0.98088219  0.70244906  0.22777231    -0.85500
O460        O  0.94586580  0.68619717  0.24860721    -0.82500
C461        C  0.92315265  0.65676415  0.24629759     0.98000
O462        O  0.92915642  0.63335833  0.24689008    -0.82600
O463        O  0.96267110  0.60109166  0.24205582    -0.85200
C464        C  0.96725824  0.60202180  0.23085805     1.02500
O465        O  0.98621793  0.62917772  0.22558959    -0.78000
O466        O  0.02252025  0.69726973  0.22169185    -0.78200
C467        C  0.99886685  0.70223844  0.21942225     1.02500
O468        O  0.04315914  0.73765213  0.24108811    -0.85500
O469        O  0.00725370  0.71543746  0.26181016    -0.82500
C470        C  0.99116778  0.69511264  0.27005481     0.98000
O471        O  0.97121036  0.66465294  0.26775525    -0.82600
O472        O  0.00764040  0.63490234  0.26138715    -0.85200
C473        C  0.02602458  0.62816887  0.25511590     1.02500
O474        O  0.03013045  0.63540047  0.24412325    -0.78000
O475        O  0.06235738  0.70349102  0.24226788    -0.78100
C476        C  0.06699428  0.73251382  0.24298574     1.02400
Cr477      Cr  0.99446771  0.70755739  0.24476992     1.93700
Cr478      Cr  0.96962811  0.63634244  0.25385993     1.93200
Cr479      Cr  0.02324992  0.66682966  0.23422154     1.39100
O480        O  0.99585731  0.67021185  0.24439097    -1.23200
C481        C  0.13900140  0.74356996  0.78677829     0.03000
C482        C  0.12833136  0.71117320  0.78259731    -0.13200
C483        C  0.10752924  0.68321223  0.78963062     0.00500
C484        C  0.09788047  0.68785441  0.80099582    -0.11700
C485        C  0.10781135  0.71980621  0.80520983     0.03000
C486        C  0.12909450  0.74767672  0.79826552    -0.11100
H487        H  0.13548657  0.70765886  0.77373282     0.08600
H488        H  0.08193002  0.66644834  0.80651192     0.06100
H489        H  0.13718803  0.77236487  0.80167791     0.06000
C490        C  0.19431545  0.97579519  0.86725017     0.03000
C491        C  0.20891005  0.97488220  0.85636615    -0.13200
C492        C  0.22816423  0.00422673  0.84984052     0.00500
C493        C  0.23291434  0.03443900  0.85420419    -0.11700
C494        C  0.21828013  0.03555263  0.86500525     0.03000
C495        C  0.19902687  0.00617526  0.87152106    -0.11100
H496        H  0.20518399  0.95145984  0.85296850     0.08600
H497        H  0.24834150  0.05716624  0.84924001     0.06100
H498        H  0.18762685  0.00692948  0.87987729     0.06000
O499        O  0.29283291  0.97792234  0.74156799    -0.85500
O500        O  0.31536556  0.01581719  0.76158608    -0.82500
C501        C  0.33546973  0.03280036  0.76972141     0.98000
O502        O  0.36551055  0.05355029  0.76722103    -0.82600
O503        O  0.39434869  0.01630002  0.76109502    -0.85200
C504        C  0.40120787  0.99750666  0.75514280     1.02500
O505        O  0.39680574  0.99513698  0.74394413    -0.78000
O506        O  0.32922709  0.96147978  0.74241566    -0.78200
C507        C  0.30018411  0.95590323  0.74413337     1.02500
O508        O  0.32497854  0.03953087  0.72750284    -0.85500
O509        O  0.34263325  0.07656984  0.74772193    -0.82500
C510        C  0.37220002  0.09981639  0.74574534     0.98000
O511        O  0.39599759  0.09437234  0.74633088    -0.82600
O512        O  0.42887095  0.06118129  0.74159748    -0.85200
C513        C  0.42788752  0.05733254  0.73034577     1.02500
O514        O  0.40077354  0.03813530  0.72510797    -0.78000
O515        O  0.33261988  0.99960472  0.72137171    -0.78100
C516        C  0.32471760  0.02137269  0.71917441     1.02400
Cr517      Cr  0.32184331  0.02745257  0.74452689     1.93700
Cr518      Cr  0.39351549  0.05433656  0.75338269     1.93200
Cr519      Cr  0.36425788  0.00059332  0.73392088     1.39100
O520        O  0.35992441  0.02763827  0.74395351    -1.23200
C521        C  0.76311705  0.97746403  0.36571534     0.03000
C522        C  0.78822783  0.00747858  0.37064410    -0.13200
C523        C  0.79812827  0.03781902  0.36492528     0.00500
C524        C  0.78375580  0.03803037  0.35394999    -0.11700
C525        C  0.75903730  0.00830486  0.34878265     0.03000
C526        C  0.74822445  0.97809389  0.35483175    -0.11100
H527        H  0.79978882  0.00730013  0.37903743     0.08600
H528        H  0.79126899  0.06153042  0.34954212     0.06100
H529        H  0.72830528  0.95517061  0.35107225     0.06000
C530        C  0.55819027  0.74462942  0.28930412     0.03000
C531        C  0.56961421  0.74466013  0.30096694    -0.13200
C532        C  0.55826687  0.71462371  0.30722681     0.00500
C533        C  0.53536431  0.68455756  0.30171816    -0.11700
C534        C  0.52340724  0.68416963  0.29020231     0.03000
C535        C  0.53498675  0.71419489  0.28397488    -0.11100
H536        H  0.58757413  0.76801672  0.30511525     0.08600
H537        H  0.52720262  0.66119867  0.30632942     0.06100
H538        H  0.52594542  0.71388208  0.27502050     0.06000
C539        C  0.09530600  0.64388078  0.03301316     0.03000
C540        C  0.11652105  0.67452904  0.03860838    -0.13200
C541        C  0.12620389  0.70447359  0.03258309     0.00500
C542        C  0.11363563  0.70379655  0.02118001    -0.11700
C543        C  0.09194462  0.67354941  0.01555458     0.03000
C544        C  0.08313598  0.64351916  0.02144622    -0.11100
H545        H  0.12618170  0.67505906  0.04748252     0.08600
H546        H  0.12075325  0.72705678  0.01667581     0.06100
H547        H  0.06681136  0.61997925  0.01707943     0.06000
C548        C  0.90536167  0.40360163  0.95401336     0.03000
C549        C  0.91459879  0.40498988  0.96606101    -0.13200
C550        C  0.90458249  0.37548647  0.97246996     0.00500
C551        C  0.88537092  0.34480679  0.96673104    -0.11700
C552        C  0.87702086  0.34307409  0.95461088     0.03000
C553        C  0.88700756  0.37267230  0.94829621    -0.11100
H554        H  0.92945267  0.42890592  0.97041701     0.08600
H555        H  0.87732285  0.32206124  0.97171547     0.06100
H556        H  0.88048803  0.37172877  0.93894306     0.06000
C557        C  0.80353819  0.06746749  0.12197939     0.03000
C558        C  0.79415725  0.03575684  0.11744856    -0.13200
C559        C  0.77393254  0.00712087  0.12427665     0.00500
C560        C  0.76285789  0.01040507  0.13556759    -0.11700
C561        C  0.77179415  0.04184218  0.14010064     0.03000
C562        C  0.79179826  0.07028531  0.13324577    -0.11100
H563        H  0.80268348  0.03338482  0.10866693     0.08600
H564        H  0.74711928  0.98840235  0.14083974     0.06100
H565        H  0.79850432  0.09458758  0.13672406     0.06000
C566        C  0.87371654  0.31257349  0.20405628     0.03000
C567        C  0.87968751  0.34292538  0.20897471    -0.13200
C568        C  0.90015848  0.37294938  0.20300863     0.00500
C569        C  0.91541327  0.37289001  0.19228257    -0.11700
C570        C  0.90917140  0.34304326  0.18694339     0.03000
C571        C  0.88778645  0.31271283  0.19283003    -0.11100
H572        H  0.86790511  0.34312399  0.21731364     0.08600
H573        H  0.93179578  0.39646108  0.18792987     0.06100
H574        H  0.88211693  0.28935633  0.18873245     0.06000
O575        O  0.95566969  0.31033857  0.08537239    -0.85500
O576        O  0.98534866  0.37360028  0.09457876    -0.82500
C577        C  0.00098605  0.36939044  0.10296212     0.98000
O578        O  0.02754075  0.36968766  0.10063647    -0.82600
O579        O  0.06857736  0.35386644  0.08864641    -0.85200
C580        C  0.05455167  0.32243060  0.08815211     1.02500
O581        O  0.02837217  0.30550256  0.08215908    -0.78000
O582        O  0.96989554  0.28876909  0.07086386    -0.78200
C583        C  0.95245417  0.28498889  0.08006814     1.02500
O584        O  0.96285275  0.33679385  0.06145881    -0.85500
O585        O  0.99907957  0.39932121  0.07056520    -0.82500
C586        C  0.02435021  0.42481752  0.07464804     0.98000
O587        O  0.04163704  0.42188203  0.08281971    -0.82600
O588        O  0.07910483  0.40164872  0.07051859    -0.85200
C589        C  0.08572107  0.38350400  0.06411434     1.02500
O590        O  0.06599520  0.35233691  0.06389630    -0.78000
O591        O  0.00782606  0.34127784  0.05357717    -0.78100
C592        C  0.98090831  0.34110286  0.05239545     1.02400
Cr593      Cr  0.97838426  0.35497257  0.07796103     1.93700
Cr594      Cr  0.05143382  0.38465075  0.08512097     1.93200
Cr595      Cr  0.01778829  0.32423775  0.06822574     1.39100
O596        O  0.01612201  0.35478691  0.07708668    -1.23200
O597        O  0.67049329  0.01747816  0.26272154    -0.85500
O598        O  0.65398453  0.97997936  0.24254857    -0.82500
C599        C  0.62402412  0.95876347  0.24513675     0.98000
O600        O  0.60189320  0.96636804  0.24387176    -0.82600
O601        O  0.57193587  0.00351389  0.24496337    -0.85200
C602        C  0.57006583  0.00844226  0.25597497     1.02500
O603        O  0.59623992  0.02582819  0.26199909    -0.78000
O604        O  0.66351885  0.05888632  0.26795823    -0.78200
C605        C  0.66930792  0.03590893  0.27068717     1.02500
O606        O  0.70913934  0.07805746  0.24899848    -0.85500
O607        O  0.68744154  0.04174706  0.22863713    -0.82500
C608        C  0.66809890  0.02460374  0.22035840     0.98000
O609        O  0.63830782  0.00274935  0.22270099    -0.82600
O610        O  0.61258903  0.04415411  0.22589738    -0.85200
C611        C  0.60719718  0.06537212  0.23081355     1.02500
O612        O  0.61054197  0.07006369  0.24203075    -0.78000
O613        O  0.67696234  0.09912906  0.24660313    -0.78100
C614        C  0.70546978  0.10240705  0.24634186     1.02400
Cr615      Cr  0.67755263  0.02948702  0.24565871     1.93700
Cr616      Cr  0.60874382  0.00604264  0.23507264     1.93200
Cr617      Cr  0.63726549  0.06133524  0.25403310     1.39100
O618        O  0.64117619  0.03239158  0.24495513    -1.23200
O619        O  0.03182766  0.70664687  0.92575148    -0.85500
O620        O  0.99685942  0.64410195  0.91643308    -0.82500
C621        C  0.97376656  0.61872658  0.91140414     0.98000
O622        O  0.95708378  0.62192283  0.90306195    -0.82600
O623        O  0.91660595  0.63679732  0.91603138    -0.85200
C624        C  0.90815491  0.65297641  0.92274131     1.02500
O625        O  0.92608402  0.68437708  0.92345756    -0.78000
O626        O  0.98608613  0.70009862  0.93374194    -0.78200
C627        C  0.01392640  0.70212078  0.93484027     1.02500
O628        O  0.03776707  0.73322398  0.90215579    -0.85500
O629        O  0.01041179  0.67074975  0.89262948    -0.82500
C630        C  0.99514048  0.67569406  0.88431214     0.98000
O631        O  0.96866475  0.67561627  0.88653405    -0.82600
O632        O  0.92305915  0.68493886  0.89877332    -0.85200
C633        C  0.93489196  0.71603142  0.89965450     1.02500
O634        O  0.96109341  0.73376081  0.90554293    -0.78000
O635        O  0.02103539  0.75348490  0.91643163    -0.78100
C636        C  0.03956675  0.75795622  0.90746137     1.02400
Cr637      Cr  0.01649315  0.68859120  0.90929476     1.93700
Cr638      Cr  0.94395765  0.65697310  0.90163887     1.93200
Cr639      Cr  0.97398019  0.71585110  0.91919710     1.39100
O640        O  0.97793415  0.68710562  0.91009753    -1.23200
C641        C  0.45630699  0.40311824  0.45197196     0.03000
C642        C  0.44284747  0.40624790  0.46284980    -0.13200
C643        C  0.42164887  0.37789208  0.46964648     0.00500
C644        C  0.41478960  0.34649083  0.46569233    -0.11700
C645        C  0.42778451  0.34291333  0.45488591     0.03000
C646        C  0.44869009  0.37130797  0.44807012    -0.11100
H647        H  0.44887937  0.43064935  0.46601957     0.08600
H648        H  0.39901547  0.32461215  0.47102687     0.06100
H649        H  0.45899015  0.36863349  0.43972909     0.06000
C650        C  0.53285835  0.64273379  0.53491703     0.03000
C651        C  0.54239887  0.67388684  0.54005814    -0.13200
C652        C  0.56264362  0.70337592  0.53367890     0.00500
C653        C  0.57373089  0.70162318  0.52221517    -0.11700
C654        C  0.56421499  0.67087491  0.51686079     0.03000
C655        C  0.54406367  0.64141847  0.52331958    -0.11100
H656        H  0.53345543  0.67514325  0.54887992     0.08600
H657        H  0.58970163  0.72444979  0.51738257     0.06100
H658        H  0.53672155  0.61751618  0.51927842     0.06000
O659        O  0.66418363  0.73395063  0.40293365    -0.85500
O660        O  0.62681990  0.67048554  0.39405212    -0.82500
C661        C  0.64398513  0.67566452  0.38470527     0.98000
O662        O  0.67146550  0.67674080  0.38535242    -0.82600
O663        O  0.73210790  0.69076283  0.39464342    -0.85200
C664        C  0.75111311  0.72204088  0.39537862     1.02500
O665        O  0.74375099  0.73875954  0.40230232    -0.78000
O666        O  0.70505127  0.75534550  0.41581377    -0.78200
C667        C  0.68862038  0.75922885  0.40757994     1.02500
O668        O  0.65212261  0.70795100  0.42685096    -0.85500
O669        O  0.62266243  0.64491550  0.41771633    -0.82500
C670        C  0.62056395  0.61983956  0.41258348     0.98000
O671        O  0.63732550  0.62329064  0.40315013    -0.82600
O672        O  0.69847850  0.64201664  0.41276561    -0.85200
C673        C  0.72486557  0.65950205  0.41859684     1.02500
O674        O  0.73676990  0.69059966  0.41954022    -0.78000
O675        O  0.69354511  0.70220901  0.43254361    -0.78100
C676        C  0.66738716  0.70255275  0.43505638     1.02400
Cr677      Cr  0.64411855  0.68934044  0.41027670     1.93700
Cr678      Cr  0.68441829  0.66033008  0.39957768     1.93200
Cr679      Cr  0.71710017  0.71957395  0.41703106     1.39100
O680        O  0.68209410  0.68967985  0.40895429    -1.23200
C681        C  0.44020939  0.31321421  0.70190435     0.03000
C682        C  0.42475182  0.31187436  0.69089309    -0.13200
C683        C  0.43625605  0.34065107  0.68382277     0.00500
C684        C  0.46299507  0.37076259  0.68791311    -0.11700
C685        C  0.47804906  0.37277060  0.69892409     0.03000
C686        C  0.46644785  0.34403213  0.70597043    -0.11100
H687        H  0.40371388  0.28857864  0.68789181     0.08600
H688        H  0.47180547  0.39312394  0.68257372     0.06100
H689        H  0.47810437  0.34559222  0.71451061     0.06000
C690        C  0.24638025  0.06636542  0.61799453     0.03000
C691        C  0.22426289  0.03551662  0.61263856    -0.13200
C692        C  0.21343987  0.00566889  0.61889518     0.00500
C693        C  0.22678199  0.00645066  0.63018878    -0.11700
C694        C  0.25000373  0.03673395  0.63550988     0.03000
C695        C  0.25919383  0.06667856  0.62945664    -0.11100
H696        H  0.21465620  0.03472675  0.60375276     0.08600
H697        H  0.21904902  0.98324964  0.63483832     0.06100
H698        H  0.27589351  0.09022097  0.63375426     0.06000
O699        O  0.35070434  0.34585433  0.59544070    -0.85500
O700        O  0.32992124  0.30643884  0.57567029    -0.82500
C701        C  0.30117471  0.28471588  0.57923799     0.98000
O702        O  0.27751716  0.29036419  0.57861102    -0.82600
O703        O  0.24481318  0.32455128  0.58166119    -0.85200
C704        C  0.24590126  0.33105958  0.59268164     1.02500
O705        O  0.27326221  0.35055332  0.59765655    -0.78000
O706        O  0.34098206  0.38478558  0.60167412    -0.78200
C707        C  0.34981752  0.36362383  0.60372337     1.02500
O708        O  0.38279413  0.40519163  0.58082249    -0.85500
O709        O  0.35715492  0.36620520  0.56115051    -0.82500
C710        C  0.33608708  0.34800397  0.55348016     0.98000
O711        O  0.30663006  0.32682159  0.55651952    -0.82600
O712        O  0.27840052  0.36508167  0.56153378    -0.85200
C713        C  0.27383576  0.38627155  0.56690928     1.02500
O714        O  0.28123900  0.39278404  0.57786375    -0.78000
O715        O  0.34852194  0.42396719  0.58024073    -0.78100
C716        C  0.37731980  0.42861492  0.57865705     1.02400
Cr717      Cr  0.35208129  0.35599435  0.57832655     1.93700
Cr718      Cr  0.27975571  0.32879482  0.57024708     1.93200
Cr719      Cr  0.31151736  0.38582298  0.58863887     1.39100
O720        O  0.31440914  0.35693957  0.57909236    -1.23200
C721        C  0.24185083  0.13433770  0.60044712    -0.11500
C722        C  0.27547249  0.15939074  0.59981741     0.15000
C723        C  0.29950481  0.15390957  0.60541191     0.01900
C724        C  0.28947177  0.12323300  0.61098838    -0.15900
C725        C  0.25570481  0.09825095  0.61172819    -0.10700
C726        C  0.23164866  0.10450065  0.60657400     0.08600
C727        C  0.28357998  0.19182310  0.59434649     0.09700
S728        S  0.34304110  0.18527913  0.60625987    -0.25000
H729        H  0.30820367  0.11908440  0.61501328     0.19900
S730        S  0.18740580  0.07682168  0.60824374    -0.30700
H731        H  0.22312865  0.13870143  0.59653338     0.10300
C732        C  0.30296485  0.20467986  0.58385929     0.03500
C733        C  0.30897258  0.23533004  0.57914994    -0.13000
C734        C  0.29529434  0.25296449  0.58454918    -0.08700
C735        C  0.27609662  0.23993694  0.59509041     0.06900
C736        C  0.27032335  0.20967787  0.59975955    -0.13800
S737        S  0.31858548  0.18137829  0.57613364    -0.30700
H738        H  0.32356067  0.24514998  0.57106771     0.11200
S739        S  0.25937581  0.26131075  0.60339386    -0.27800
H740        H  0.25561986  0.20008896  0.60784210     0.08400
H741        H  0.18926325  0.06655924  0.61991136     0.26800
H742        H  0.33792217  0.20607212  0.56767247     0.21600
H743        H  0.28718444  0.29306269  0.60150130     0.26900
H744        H  0.33872291  0.21298132  0.60601822     0.15800
C745        C  0.40352134  0.32285591  0.65176488    -0.11500
C746        C  0.39597627  0.34816688  0.65003375     0.15000
C747        C  0.39984932  0.36935934  0.65970439     0.01900
C748        C  0.41088578  0.36472225  0.67075827    -0.15900
C749        C  0.42022674  0.34065472  0.67233028    -0.10700
C750        C  0.41671227  0.31967668  0.66261478     0.08600
C751        C  0.38433811  0.35208123  0.63809167     0.09700
S752        S  0.39297368  0.40397512  0.65839192    -0.25000
H753        H  0.41365366  0.38113587  0.67809720     0.19900
S754        S  0.43098838  0.29033895  0.66310367    -0.30700
H755        H  0.40051436  0.30639068  0.64441316     0.10300
C756        C  0.40407335  0.35870636  0.62772318     0.03500
C757        C  0.39196948  0.36219699  0.61665958    -0.13000
C758        C  0.36106803  0.36037451  0.61574529    -0.08700
C759        C  0.34164643  0.35430847  0.62616557     0.06900
C760        C  0.35326638  0.34987271  0.63715006    -0.13800
S761        S  0.44534906  0.36438607  0.62858865    -0.30700
H762        H  0.40689179  0.36699713  0.60867973     0.11200
S763        S  0.30149951  0.35089364  0.62602627    -0.27800
H764        H  0.33793556  0.34461292  0.64505154     0.08400
H765        H  0.45956628  0.31079020  0.66992315     0.26800
H766        H  0.45356675  0.37163058  0.61641936     0.21600
H767        H  0.29081728  0.33090003  0.61577992     0.26900
H768        H  0.40455279  0.41209139  0.64654945     0.15800
C769        C  0.58740270  0.69109658  0.48408761    -0.11500
C770        C  0.60576699  0.67532980  0.48195890     0.15000
C771        C  0.60849436  0.65610585  0.49119064     0.01900
C772        C  0.59391592  0.65416114  0.50239023    -0.15900
C773        C  0.57578155  0.67022873  0.50451630    -0.10700
C774        C  0.57161867  0.68793167  0.49504462     0.08600
C775        C  0.62169991  0.67991735  0.47001913     0.09700
S776        S  0.63009091  0.63348541  0.48926725    -0.25000
H777        H  0.59716297  0.64043081  0.50954661     0.19900
S778        S  0.54578717  0.70636754  0.49621074    -0.30700
H779        H  0.58492456  0.70565987  0.47704931     0.10300
C780        C  0.60240637  0.67010901  0.45949380     0.03500
C781        C  0.61822883  0.67838642  0.44833898    -0.13000
C782        C  0.65308221  0.69530482  0.44732583    -0.08700
C783        C  0.67247730  0.70372239  0.45786708     0.06900
C784        C  0.65655578  0.69639027  0.46909616    -0.13800
S785        S  0.55748247  0.64590357  0.46021967    -0.30700
H786        H  0.60321298  0.67082536  0.44028501     0.11200
S787        S  0.71736042  0.72523839  0.45718033    -0.27800
H788        H  0.67126909  0.70407072  0.47722397     0.08400
H789        H  0.52310970  0.68299855  0.50443005     0.26800
H790        H  0.55154025  0.64590611  0.44788150     0.21600
H791        H  0.72283123  0.72429389  0.46951463     0.26900
H792        H  0.62354080  0.62733192  0.47696478     0.15800
C793        C  0.45611308  0.49742110  0.56324136    -0.11500
C794        C  0.44816394  0.52255795  0.56210495     0.15000
C795        C  0.41840810  0.51762252  0.56729358     0.01900
C796        C  0.39695883  0.48757681  0.57309895    -0.15900
C797        C  0.40407238  0.46164376  0.57394698    -0.10700
C798        C  0.43481092  0.46737755  0.56916780     0.08600
C799        C  0.47056513  0.55306108  0.55509222     0.09700
S800        S  0.40590199  0.54840692  0.56661543    -0.25000
H801        H  0.37422331  0.48442799  0.57688104     0.19900
S802        S  0.44809641  0.43730270  0.56986863    -0.30700
H803        H  0.47904126  0.50111015  0.55932694     0.10300
C804        C  0.50213379  0.57730339  0.55941545     0.03500
C805        C  0.52190502  0.60626972  0.55266809    -0.13000
C806        C  0.51080003  0.61166032  0.54167221    -0.08700
C807        C  0.47895161  0.58748212  0.53744640     0.06900
C808        C  0.45950185  0.55837517  0.54408891    -0.13800
S809        S  0.51673097  0.57191221  0.57373006    -0.30700
H810        H  0.54619421  0.62493306  0.55595832     0.11200
S811        S  0.46108742  0.59293322  0.52394286    -0.27800
H812        H  0.43506705  0.53997482  0.54079213     0.08400
H813        H  0.44504948  0.43441868  0.58240585     0.26800
H814        H  0.54789127  0.60144583  0.57343211     0.21600
H815        H  0.47597031  0.62767803  0.52494005     0.26900
H816        H  0.43822116  0.57633951  0.56664502     0.15800
C817        C  0.49405167  0.48511245  0.43478441    -0.11500
C818        C  0.52628580  0.49123524  0.43255155     0.15000
C819        C  0.53486258  0.46761788  0.43627463     0.01900
C820        C  0.51148024  0.43905687  0.44244289    -0.15900
C821        C  0.47933455  0.43308425  0.44486784    -0.10700
C822        C  0.47039794  0.45617258  0.44071944     0.08600
C823        C  0.55103830  0.52350028  0.42711868     0.09700
S824        S  0.57540742  0.47281883  0.43365565    -0.25000
H825        H  0.51858133  0.42148178  0.44552195     0.19900
S826        S  0.42915651  0.44989732  0.44247807    -0.30700
H827        H  0.48730525  0.50310632  0.43189039     0.10300
C828        C  0.55193199  0.52938886  0.41471127     0.03500
C829        C  0.57558732  0.56069863  0.41006886    -0.13000
C830        C  0.59801243  0.58638487  0.41764687    -0.08700
C831        C  0.59743521  0.57997386  0.43007283     0.06900
C832        C  0.57391937  0.54880095  0.43463464    -0.13800
S833        S  0.52299635  0.49694750  0.40483328    -0.30700
H834        H  0.57607234  0.56549738  0.40058532     0.11200
S835        S  0.62628946  0.60996205  0.44066780    -0.27800
H836        H  0.57345973  0.54415713  0.44414081     0.08400
H837        H  0.41240977  0.41495919  0.44180637     0.26800
H838        H  0.53402687  0.51556731  0.39419334     0.21600
H839        H  0.65276983  0.62747276  0.43264622     0.26900
H840        H  0.58239777  0.49163841  0.42311185     0.15800
C841        C  0.38406399  0.35490528  0.52530148    -0.11500
C842        C  0.37079447  0.36829949  0.51726596     0.15000
C843        C  0.34452099  0.37294682  0.52111179     0.01900
C844        C  0.33217212  0.36400988  0.53277900    -0.15900
C845        C  0.34627108  0.35169509  0.54086827    -0.10700
C846        C  0.37243395  0.34699245  0.53706039     0.08600
C847        C  0.38359783  0.37510867  0.50479112     0.09700
S848        S  0.32680924  0.39161059  0.51180515    -0.25000
H849        H  0.31250299  0.36831100  0.53576951     0.19900
S850        S  0.39193782  0.33097610  0.54677364    -0.30700
H851        H  0.40370657  0.35051303  0.52236247     0.10300
C852        C  0.41759960  0.39705044  0.50222156     0.03500
C853        C  0.42924075  0.39927212  0.49046786    -0.13000
C854        C  0.40747895  0.38044322  0.48120369    -0.08700
C855        C  0.37303041  0.36087711  0.48363095     0.06900
C856        C  0.36162767  0.35776647  0.49539427    -0.13800
S857        S  0.44624330  0.42203942  0.51389835    -0.30700
H858        H  0.45557258  0.41455574  0.48857289     0.11200
S859        S  0.34244765  0.33910991  0.47210685    -0.27800
H860        H  0.33541731  0.34127377  0.49726756     0.08400
H861        H  0.36366690  0.31123560  0.55383927     0.26800
H862        H  0.47471518  0.43857863  0.50662276     0.21600
H863        H  0.36091139  0.36113383  0.46280123     0.26900
H864        H  0.35607561  0.41222722  0.50533408     0.15800
C865        C  0.95549292  0.33239650  0.16046587    -0.11500
C866        C  0.95385745  0.35387373  0.15202431     0.15000
C867        C  0.93759523  0.37134977  0.15518784     0.01900
C868        C  0.92191943  0.36571590  0.16628695    -0.15900
C869        C  0.92390926  0.34478364  0.17489956    -0.10700
C870        C  0.94165248  0.32847218  0.17196305     0.08600
C871        C  0.96660651  0.35591415  0.13964897     0.09700
S872        S  0.93671982  0.40196222  0.14555743    -0.25000
H873        H  0.90866467  0.37864537  0.16833797     0.19900
S874        S  0.94899774  0.30376819  0.18255724    -0.30700
H875        H  0.96805190  0.31896344  0.15813477     0.10300
C876        C  0.00068915  0.36953839  0.13705901     0.03500
C877        C  0.01120746  0.37345003  0.12505137    -0.13000
C878        C  0.98844038  0.36445704  0.11552274    -0.08700
C879        C  0.95411416  0.34993464  0.11822968     0.06900
C880        C  0.94376773  0.34566317  0.13020300    -0.13800
S881        S  0.03098127  0.38348217  0.14897277    -0.30700
H882        H  0.03741811  0.38432358  0.12307488     0.11200
S883        S  0.92273524  0.33572857  0.10665985    -0.27800
H884        H  0.91762510  0.33477104  0.13229891     0.08400
H885        H  0.95246411  0.32366972  0.19253630     0.26800
H886        H  0.05879711  0.39179771  0.14171816     0.21600
H887        H  0.89488309  0.32477330  0.11416959     0.26900
H888        H  0.96810625  0.41304311  0.14036024     0.15800
C889        C  0.83471952  0.24698711  0.22867709    -0.11500
C890        C  0.80582819  0.22233410  0.22302979     0.15000
C891        C  0.79994094  0.22695384  0.21096065     0.01900
C892        C  0.82304881  0.25589374  0.20485511    -0.15900
C893        C  0.85180961  0.28084487  0.21054600    -0.10700
C894        C  0.85784387  0.27585685  0.22257807     0.08600
C895        C  0.78252500  0.19204106  0.22993123     0.09700
S896        S  0.76330915  0.19713425  0.20287739    -0.25000
H897        H  0.81798168  0.25948016  0.19566668     0.19900
S898        S  0.89499950  0.30489025  0.23057425    -0.30700
H899        H  0.83954445  0.24344354  0.23790256     0.10300
C900        C  0.78148069  0.16154564  0.22830140     0.03500
C901        C  0.75766831  0.13311161  0.23451327    -0.13000
C902        C  0.73439692  0.13433578  0.24219211    -0.08700
C903        C  0.73702549  0.16549067  0.24437144     0.06900
C904        C  0.76083682  0.19383216  0.23819197    -0.13800
S905        S  0.80980395  0.15865597  0.21802023    -0.30700
H906        H  0.75591273  0.10938219  0.23283279     0.11200
S907        S  0.71120275  0.17086308  0.25508068    -0.27800
H908        H  0.76217976  0.21746309  0.23970673     0.08400
H909        H  0.91590453  0.31604454  0.22047679     0.26800
H910        H  0.79866047  0.12478601  0.21996377     0.21600
H911        H  0.70795674  0.14571985  0.26289269     0.26900
H912        H  0.74206260  0.18394343  0.21281260     0.15800
C913        C  0.90603552  0.19147827  0.08697366    -0.11500
C914        C  0.88371236  0.18953693  0.09577186     0.15000
C915        C  0.88282269  0.21834805  0.09886306     0.01900
C916        C  0.90483113  0.24858576  0.09335423    -0.15900
C917        C  0.92799720  0.25115810  0.08470182    -0.10700
C918        C  0.92819347  0.22182614  0.08137434     0.08600
C919        C  0.86332641  0.15763165  0.10214850     0.09700
S920        S  0.85498605  0.21846375  0.11005899    -0.25000
H921        H  0.90390195  0.27045352  0.09598008     0.19900
S922        S  0.95738435  0.22238574  0.07057071    -0.30700
H923        H  0.90662605  0.16918165  0.08475911     0.10300
C924        C  0.83307221  0.13215158  0.09739636     0.03500
C925        C  0.81439937  0.10247182  0.10386511    -0.13000
C926        C  0.82548548  0.09784911  0.11498657    -0.08700
C927        C  0.85636013  0.12314910  0.11953216     0.06900
C928        C  0.87467902  0.15284014  0.11314470    -0.13800
S929        S  0.81781332  0.13806300  0.08331574    -0.30700
H930        H  0.79069289  0.08306793  0.10041033     0.11200
S931        S  0.87401229  0.11876323  0.13328768    -0.27800
H932        H  0.89822254  0.17235422  0.11672115     0.08400
H933        H  0.94450523  0.18782667  0.07007958     0.26800
H934        H  0.78731021  0.10779011  0.08342425     0.21600
H935        H  0.86030928  0.08412939  0.13240869     0.26900
H936        H  0.82917999  0.18552545  0.10823294     0.15800
C937        C  0.75186434  0.03192713  0.17319024    -0.11500
C938        C  0.72706034  0.04045327  0.17371580     0.15000
C939        C  0.71930737  0.05239818  0.16332238     0.01900
C940        C  0.73585927  0.05464822  0.15259648    -0.15900
C941        C  0.75944088  0.04449217  0.15196336    -0.10700
C942        C  0.76809943  0.03379652  0.16245846     0.08600
C943        C  0.70968578  0.03617331  0.18523639     0.09700
S944        S  0.68756656  0.06360667  0.16302936    -0.25000
H945        H  0.72906611  0.06275805  0.14453459     0.19900
S946        S  0.79930636  0.02181992  0.16269913    -0.30700
H947        H  0.75829689  0.02330275  0.18120669     0.10300
C948        C  0.68820744  0.00419981  0.18996123     0.03500
C949        C  0.67396934  0.00105018  0.20129386    -0.13000
C950        C  0.68080744  0.02925310  0.20799368    -0.08700
C951        C  0.70091512  0.06125331  0.20293858     0.06900
C952        C  0.71551503  0.06436643  0.19171039    -0.13800
S953        S  0.67886441  0.96738632  0.18152887    -0.30700
H954        H  0.65822442  0.97659858  0.20510593     0.11200
S955        S  0.70802222  0.09896578  0.21011475    -0.27800
H956        H  0.73153237  0.08891936  0.18797992     0.08400
H957        H  0.81841943  0.04239178  0.15317905     0.26800
H958        H  0.65761831  0.94400692  0.19004264     0.21600
H959        H  0.67737446  0.08455085  0.21616543     0.26900
H960        H  0.66655680  0.03988604  0.17148798     0.15800
C961        C  0.90532927  0.35235021  0.00492557    -0.11500
C962        C  0.93960616  0.36828851  0.00716014     0.15000
C963        C  0.96216899  0.38939517  0.99835356     0.01900
C964        C  0.95004709  0.39266500  0.98728500    -0.15900
C965        C  0.91573277  0.37595711  0.98491337    -0.10700
C966        C  0.89316113  0.35654860  0.99404942     0.08600
C967        C  0.95084684  0.36190845  0.01870867     0.09700
S968        S  0.00658666  0.41234108  0.00063903    -0.25000
H969        H  0.96754336  0.40758427  0.98036005     0.19900
S970        S  0.84859796  0.33670612  0.99244401    -0.30700
H971        H  0.88793474  0.33657871  0.01173749     0.10300
C972        C  0.94490298  0.37347454  0.02952416     0.03500
C973        C  0.95456040  0.36575628  0.04033184    -0.13000
C974        C  0.97056692  0.34710165  0.04059127    -0.08700
C975        C  0.97697965  0.33586907  0.02970805     0.06900
C976        C  0.96681845  0.34325049  0.01887796    -0.13800
S977        S  0.92600775  0.39905270  0.02953932    -0.30700
H978        H  0.95024136  0.37490967  0.04863473     0.11200
S979        S  0.99658952  0.31093642  0.02951464    -0.27800
H980        H  0.97098584  0.33427663  0.01049820     0.08400
H981        H  0.84927003  0.35984085  0.98420473     0.26800
H982        H  0.92680449  0.40378902  0.04199356     0.21600
H983        H  0.99744499  0.30801525  0.01700801     0.26900
H984        H  0.00541133  0.41645208  0.01306126     0.15800
C985        C  0.91150906  0.48359658  0.94307170    -0.11500
C986        C  0.93387305  0.49200890  0.93349087     0.15000
C987        C  0.94693610  0.47123286  0.93079872     0.01900
C988        C  0.93758322  0.44289689  0.93775545    -0.15900
C989        C  0.91495566  0.43434411  0.94723118    -0.10700
C990        C  0.90143363  0.45474017  0.94980655     0.08600
C991        C  0.94423669  0.52336035  0.92688066     0.09700
S992        S  0.97524039  0.47920602  0.91854773    -0.25000
H993        H  0.94782106  0.42710249  0.93569027     0.19900
S994        S  0.87081095  0.44499896  0.96137041    -0.30700
H995        H  0.90154829  0.49956671  0.94524806     0.10300
C996        C  0.92124447  0.52842906  0.92038897     0.03500
C997        C  0.93194966  0.55928501  0.91489083    -0.13000
C998        C  0.96525837  0.58519000  0.91563962    -0.08700
C999        C  0.98855768  0.57922063  0.92158528     0.06900
C1000       C  0.97766118  0.54879687  0.92733805    -0.13800
S1001       S  0.87829585  0.49561938  0.91903535    -0.30700
H1002       H  0.91400770  0.56360408  0.91032240     0.11200
S1003       S  0.03261526  0.60882308  0.92192102    -0.27800
H1004       H  0.99547721  0.54481356  0.93218963     0.08400
H1005       H  0.85539386  0.41021426  0.96038374     0.26800
H1006       H  0.86724164  0.51384172  0.91242868     0.21600
H1007       H  0.03386635  0.62049683  0.91020705     0.26900
H1008       H  0.96256137  0.49437189  0.91105172     0.15800
C1009       C  0.08464517  0.55965247  0.04112974    -0.11500
C1010       C  0.06409285  0.55109372  0.05127674     0.15000
C1011       C  0.05454899  0.57364533  0.05548725     0.01900
C1012       C  0.06587563  0.60405784  0.04957711    -0.15900
C1013       C  0.08584395  0.61227095  0.03929840    -0.10700
C1014       C  0.09556403  0.58984623  0.03511507     0.08600
C1015       C  0.05344905  0.51877820  0.05734644     0.09700
S1016       S  0.02710492  0.56463719  0.06809470    -0.25000
H1017       H  0.05822378  0.62107013  0.05281033     0.19900
S1018       S  0.12227504  0.59850267  0.02229717    -0.30700
H1019       H  0.09240934  0.54271018  0.03791618     0.10300
C1020       C  0.03245607  0.48820919  0.05160537     0.03500
C1021       C  0.02303096  0.45830385  0.05761090    -0.13000
C1022       C  0.03391848  0.45787539  0.06934103    -0.08700
C1023       C  0.05451986  0.48869506  0.07514915     0.06900
C1024       C  0.06437804  0.51862470  0.06904623    -0.13800
S1025       S  0.01667172  0.48701847  0.03673277    -0.30700
H1026       H  0.00726934  0.43506227  0.05303913     0.11200
S1027       S  0.06801898  0.49178649  0.09043142    -0.27800
H1028       H  0.08031476  0.54204659  0.07351786     0.08400
H1029       H  0.14038879  0.63325756  0.02374796     0.26800
H1030       H  0.00330827  0.45276081  0.03473318     0.21600
H1031       H  0.03702024  0.46614276  0.09459132     0.26900
H1032       H  0.00811391  0.53012336  0.06611070     0.15800
C1033       C  0.03503166  0.66377645  0.98948754    -0.11500
C1034       C  0.05847499  0.68306383  0.98071439     0.15000
C1035       C  0.09271995  0.69802611  0.98331430     0.01900
C1036       C  0.10270630  0.69301078  0.99452406    -0.15900
C1037       C  0.07935113  0.67435874  0.00345088    -0.10700
C1038       C  0.04504480  0.65967194  0.00086552     0.08600
C1039       C  0.04653626  0.68731123  0.96896267     0.09700
S1040       S  0.12489648  0.72431359  0.97283390    -0.25000
H1041       H  0.12907003  0.70462690  0.99644073     0.19900
S1042       S  0.01290588  0.63697653  0.01180648    -0.30700
H1043       H  0.00872448  0.65248017  0.98753176     0.10300
C1044       C  0.04856698  0.67098091  0.95867772     0.03500
C1045       C  0.03834217  0.67688741  0.94762681    -0.13000
C1046       C  0.02573944  0.69848936  0.94666341    -0.08700
C1047       C  0.02382757  0.71490246  0.95699043     0.06900
C1048       C  0.03392455  0.70887842  0.96804094    -0.13800
S1049       S  0.06318570  0.64185032  0.95971081    -0.30700
H1050       H  0.03940925  0.66399592  0.93971177     0.11200
S1051       S  0.01020340  0.74481481  0.95655337    -0.27800
H1052       H  0.03275675  0.72175021  0.97595152     0.08400
H1053       H  0.03071246  0.65734182  0.02155105     0.26800
H1054       H  0.06392992  0.63670229  0.94734317     0.21600
H1055       H  0.02356970  0.75759017  0.94518765     0.26900
H1056       H  0.10695235  0.73718386  0.96715230     0.15800
C1057       C  0.56365922  0.69234503  0.33954098    -0.11500
C1058       C  0.59806439  0.70571510  0.34087590     0.15000
C1059       C  0.61948764  0.72436588  0.33137397     0.01900
C1060       C  0.60599413  0.72788112  0.32064573    -0.15900
C1061       C  0.57150626  0.71396171  0.31924575    -0.10700
C1062       C  0.55029490  0.69697548  0.32901552     0.08600
C1063       C  0.61047564  0.69867299  0.35210612     0.09700
S1064       S  0.66414995  0.74411420  0.33234154    -0.25000
H1065       H  0.62249587  0.74101901  0.31324667     0.19900
S1066       S  0.50604930  0.68102214  0.32872007    -0.30700
H1067       H  0.54704653  0.67821047  0.34679181     0.10300
C1068       C  0.60505858  0.70888739  0.36334300     0.03500
C1069       C  0.61563907  0.70024432  0.37375796    -0.13000
C1070       C  0.63199478  0.68191430  0.37326876    -0.08700
C1071       C  0.63754160  0.67181839  0.36198841     0.06900
C1072       C  0.62673571  0.68027497  0.35157265    -0.13800
S1073       S  0.58605212  0.73427532  0.36444726    -0.30700
H1074       H  0.61196432  0.70864208  0.38234587     0.11200
S1075       S  0.65705591  0.64716887  0.36027734    -0.27800
H1076       H  0.63052933  0.67196430  0.34297339     0.08400
H1077       H  0.50747337  0.70490436  0.32067557     0.26800
H1078       H  0.58449960  0.73465147  0.37701312     0.21600
H1079       H  0.64218590  0.62749153  0.37049210     0.26900
H1080       H  0.66616606  0.75024925  0.34472272     0.15800
C1081       C  0.59668525  0.81265668  0.26553715    -0.11500
C1082       C  0.58986011  0.83647408  0.27023472     0.15000
C1083       C  0.57342498  0.83030518  0.28139360     0.01900
C1084       C  0.56375672  0.80041403  0.28745973    -0.15900
C1085       C  0.57034656  0.77644005  0.28272050    -0.10700
C1086       C  0.58749161  0.78300461  0.27169233     0.08600
C1087       C  0.59935585  0.86698506  0.26313070     0.09700
S1088       S  0.56368951  0.85929163  0.28831033    -0.25000
H1089       H  0.55070795  0.79566476  0.29589600     0.19900
S1090       S  0.59893215  0.75491735  0.26509219    -0.30700
H1091       H  0.60941017  0.81730076  0.25703796     0.10300
C1092       C  0.63253703  0.89349044  0.26255431     0.03500
C1093       C  0.64016626  0.92243443  0.25611490    -0.13000
C1094       C  0.61523785  0.92567923  0.25024957    -0.08700
C1095       C  0.58220910  0.89817102  0.25036310     0.06900
C1096       C  0.57466718  0.86940721  0.25686721    -0.13800
S1097       S  0.66490901  0.89108691  0.27052996    -0.30700
H1098       H  0.66545911  0.94314921  0.25608446     0.11200
S1099       S  0.54903631  0.89839618  0.24215743    -0.27800
H1100       H  0.54928272  0.84881466  0.25716836     0.08400
H1101       H  0.60340689  0.74256827  0.27597622     0.26800
H1102       H  0.69106148  0.92309019  0.26754621     0.21600
H1103       H  0.53292026  0.86435480  0.23919153     0.26900
H1104       H  0.59078633  0.88814624  0.28351409     0.15800
C1105       C  0.73742980  0.88807297  0.37359592    -0.11500
C1106       C  0.72761857  0.88636373  0.38557048     0.15000
C1107       C  0.73025825  0.91489118  0.39103841     0.01900
C1108       C  0.74221081  0.94420311  0.38438610    -0.15900
C1109       C  0.75162798  0.94586135  0.37233223    -0.10700
C1110       C  0.74973206  0.91746530  0.36697511     0.08600
C1111       C  0.71589536  0.85471439  0.39213134     0.09700
S1112       S  0.71854255  0.91545823  0.40638681    -0.25000
H1113       H  0.74362788  0.96586073  0.38861422     0.19900
S1114       S  0.76404367  0.91743582  0.35197694    -0.30700
H1115       H  0.73611048  0.86637265  0.36944103     0.10300
C1116       C  0.68551987  0.82608656  0.38923235     0.03500
C1117       C  0.67682902  0.79573525  0.39474402    -0.13000
C1118       C  0.69780862  0.79317368  0.40322396    -0.08700
C1119       C  0.72764963  0.82264397  0.40657854     0.06900
C1120       C  0.73629756  0.85289505  0.40091689    -0.13800
S1121       S  0.65782347  0.82827180  0.37845622    -0.30700
H1122       H  0.65378471  0.77374278  0.39220948     0.11200
S1123       S  0.75595905  0.82260021  0.41763083    -0.27800
H1124       H  0.75954073  0.87518729  0.40307068     0.08400
H1125       H  0.79005976  0.95081252  0.35212739     0.26800
H1126       H  0.63197133  0.79505941  0.37956852     0.21600
H1127       H  0.77709841  0.85729525  0.41843783     0.26900
H1128       H  0.69361171  0.88170956  0.40697022     0.15800
C1129       C  0.67560846  0.99594329  0.29932993    -0.11500
C1130       C  0.69963231  0.02379351  0.30567106     0.15000
C1131       C  0.71105449  0.05594620  0.30092376     0.01900
C1132       C  0.69961157  0.05938037  0.28972654    -0.15900
C1133       C  0.67657886  0.03141792  0.28318690    -0.10700
C1134       C  0.66352264  0.99944506  0.28830369     0.08600
C1135       C  0.71403392  0.01839277  0.31670299     0.09700
S1136       S  0.74073345  0.09349248  0.30857373    -0.25000
H1137       H  0.70959890  0.08401912  0.28591884     0.19900
S1138       S  0.63113588  0.96220171  0.28129043    -0.30700
H1139       H  0.66647497  0.97122423  0.30293973     0.10300
C1140       C  0.69461082  0.00331586  0.32700521     0.03500
C1141       C  0.70959405  0.99893293  0.33719983    -0.13000
C1142       C  0.74363574  0.00946229  0.33733381    -0.08700
C1143       C  0.76277513  0.02364908  0.32687523     0.06900
C1144       C  0.74783417  0.02801899  0.31673403    -0.13800
S1145       S  0.65125227  0.99144336  0.32744970    -0.30700
H1146       H  0.69510601  0.98845543  0.34525560     0.11200
S1147       S  0.80629054  0.03651670  0.32585393    -0.27800
H1148       H  0.76266041  0.03897104  0.30876975     0.08400
H1149       H  0.61563356  0.97761790  0.27555090     0.26800
H1150       H  0.64426331  0.97650991  0.33883215     0.21600
H1151       H  0.80501564  0.01297273  0.33403025     0.26900
H1152       H  0.73140680  0.08063157  0.32021919     0.15800
C1153       C  0.41599075  0.19286211  0.73920197    -0.11500
C1154       C  0.39449601  0.19387358  0.73064663     0.15000
C1155       C  0.36401882  0.16450832  0.72819903     0.01900
C1156       C  0.35648497  0.13468764  0.73387788    -0.15900
C1157       C  0.37872741  0.13318273  0.74197023    -0.10700
C1158       C  0.40834299  0.16303856  0.74494961     0.08600
C1159       C  0.40601218  0.22478116  0.72352771     0.09700
S1160       S  0.33441633  0.16308711  0.71748494    -0.25000
H1161       H  0.33372389  0.11215640  0.73152482     0.19900
S1162       S  0.43735257  0.16479955  0.75598954    -0.30700
H1163       H  0.43930262  0.21532827  0.74119524     0.10300
C1164       C  0.40825955  0.25373193  0.72842453     0.03500
C1165       C  0.41952026  0.28225238  0.72122186    -0.13000
C1166       C  0.42896610  0.28258533  0.70922954    -0.08700
C1167       C  0.42750834  0.25369017  0.70451649     0.06900
C1168       C  0.41558463  0.22514252  0.71161416    -0.13800
S1169       S  0.39589804  0.25398718  0.74372028    -0.30700
H1170       H  0.42066281  0.30432537  0.72488969     0.11200
S1171       S  0.44213565  0.25201126  0.68975213    -0.27800
H1172       H  0.41449094  0.20311926  0.70789795     0.08400
H1173       H  0.41315219  0.13928122  0.76322405     0.26800
H1174       H  0.40359555  0.28731848  0.74389625     0.21600
H1175       H  0.46823614  0.28534828  0.68962044     0.26900
H1176       H  0.34263452  0.19636133  0.71891735     0.15800
C1177       C  0.28938639  0.04514292  0.69250322    -0.11500
C1178       C  0.29724207  0.03077087  0.68298887     0.15000
C1179       C  0.31482651  0.01412393  0.68536214     0.01900
C1180       C  0.32385301  0.01199639  0.69714905    -0.15900
C1181       C  0.31505277  0.02537804  0.70681451    -0.10700
C1182       C  0.29753136  0.04231875  0.70436046     0.08600
C1183       C  0.28528363  0.03240688  0.67082425     0.09700
S1184       S  0.32568080  0.99426115  0.67382057    -0.25000
H1185       H  0.33745352  0.99925117  0.69877718     0.19900
S1186       S  0.28307843  0.05865306  0.71609618    -0.30700
H1187       H  0.27573928  0.05768920  0.69060972     0.10300
C1188       C  0.25098635  0.01535916  0.66817438     0.03500
C1189       C  0.24034810  0.01789693  0.65670169    -0.13000
C1190       C  0.26320187  0.03644128  0.64762236    -0.08700
C1191       C  0.29766770  0.05289598  0.65024343     0.06900
C1192       C  0.30824284  0.05122986  0.66184361    -0.13800
S1193       S  0.22071650  0.98924788  0.67928018    -0.30700
H1194       H  0.21394544  0.00509331  0.65473246     0.11200
S1195       S  0.32941269  0.07487916  0.63909982    -0.27800
H1196       H  0.33466419  0.06410738  0.66383045     0.08400
H1197       H  0.27373661  0.07700142  0.70873048     0.26800
H1198       H  0.19226491  0.97857307  0.67212837     0.21600
H1199       H  0.31165070  0.05323890  0.62962429     0.26900
H1200       H  0.29722814  0.98435568  0.66675954     0.15800
C1201       C  0.32266807  0.04645902  0.80253993    -0.11500
C1202       C  0.29543161  0.01517436  0.80545154     0.15000
C1203       C  0.28265272  0.98962645  0.79682063     0.01900
C1204       C  0.29646536  0.99619479  0.78535908    -0.15900
C1205       C  0.32315417  0.02777641  0.78222563    -0.10700
C1206       C  0.33646350  0.05317319  0.79101822     0.08600
C1207       C  0.27814879  0.01109442  0.81695234     0.09700
S1208       S  0.24818899  0.94835847  0.79978931    -0.25000
H1209       H  0.28609805  0.97631767  0.77880339     0.19900
S1210       S  0.36902978  0.09521662  0.78793029    -0.30700
H1211       H  0.33214281  0.06626752  0.80912304     0.10300
C1212       C  0.29096525  0.00726270  0.82785837     0.03500
C1213       C  0.27337752  0.00355499  0.83849694    -0.13000
C1214       C  0.24343535  0.00382687  0.83836715    -0.08700
C1215       C  0.23048441  0.00722283  0.82740363     0.06900
C1216       C  0.24803147  0.01095651  0.81683593    -0.13800
S1217       S  0.32953763  0.00702598  0.82818321    -0.30700
H1218       H  0.28327392  0.00126392  0.84697473     0.11200
S1219       S  0.19213147  0.00770910  0.82635203    -0.27800
H1220       H  0.23819576  0.01384968  0.80843127     0.08400
H1221       H  0.35542321  0.09724742  0.77694407     0.26800
H1222       H  0.33023230  0.00276889  0.84061986     0.21600
H1223       H  0.17655909  0.98719213  0.83630947     0.26900
H1224       H  0.25407407  0.94836762  0.81212371     0.15800
C1225       C  0.15892848  0.91043830  0.89181264    -0.11500
C1226       C  0.12976004  0.88577874  0.88631504     0.15000
C1227       C  0.12187610  0.89094225  0.87461586     0.01900
C1228       C  0.14379340  0.92019578  0.86853654    -0.15900
C1229       C  0.17314857  0.94481558  0.87396654    -0.10700
C1230       C  0.18081168  0.93983042  0.88574690     0.08600
C1231       C  0.10906778  0.85398159  0.89262458     0.09700
S1232       S  0.08453015  0.86103263  0.86689875    -0.25000
H1233       H  0.13764460  0.92408008  0.85957425     0.19900
S1234       S  0.21845052  0.96938448  0.89338560    -0.30700
H1235       H  0.16508245  0.90634396  0.90074413     0.10300
C1236       C  0.11095781  0.82568502  0.88969232     0.03500
C1237       C  0.08864026  0.79510684  0.89496349    -0.13000
C1238       C  0.06408723  0.79195641  0.90310424    -0.08700
C1239       C  0.06317106  0.82097020  0.90628634     0.06900
C1240       C  0.08595385  0.85162184  0.90114264    -0.13800
S1241       S  0.14151664  0.82845762  0.87906928    -0.30700
H1242       H  0.09005065  0.77340493  0.89252393     0.11200
S1243       S  0.03254304  0.82063845  0.91617940    -0.27800
H1244       H  0.08463091  0.87354866  0.90335565     0.08400
H1245       H  0.23824911  0.98212971  0.88307061     0.26800
H1246       H  0.13405508  0.79529974  0.88009673     0.21600
H1247       H  0.00579919  0.79689829  0.90928549     0.26900
H1248       H  0.06457263  0.84754304  0.87712597     0.15800
C1249       C  0.25967203  0.88060398  0.76464014    -0.11500
C1250       C  0.22864295  0.86083665  0.75920003     0.15000
C1251       C  0.22089090  0.87272641  0.74875860     0.01900
C1252       C  0.24404945  0.90425750  0.74417363    -0.15900
C1253       C  0.27532607  0.92377439  0.74956668    -0.10700
C1254       C  0.28297281  0.91164682  0.75998548     0.08600
C1255       C  0.20440072  0.82929440  0.76526674     0.09700
S1256       S  0.18241718  0.84848416  0.74070597    -0.25000
H1257       H  0.23806056  0.91312688  0.73614772     0.19900
S1258       S  0.32151935  0.93478550  0.76812975    -0.30700
H1259       H  0.26555003  0.87200792  0.77276446     0.10300
C1260       C  0.21100902  0.80319898  0.76697553     0.03500
C1261       C  0.18918322  0.77549416  0.77393033    -0.13000
C1262       C  0.16043214  0.77290087  0.77907818    -0.08700
C1263       C  0.15308498  0.79838374  0.77680648     0.06900
C1264       C  0.17539604  0.82646447  0.77018027    -0.13800
S1265       S  0.24700710  0.80491830  0.76017042    -0.30700
H1266       H  0.19475048  0.75597332  0.77551600     0.11200
S1267       S  0.11510461  0.79607500  0.78164774    -0.27800
H1268       H  0.17009709  0.84627160  0.76882594     0.08400
H1269       H  0.32622079  0.96636847  0.76569331     0.26800
H1270       H  0.24092814  0.77380950  0.76428075     0.21600
H1271       H  0.09521602  0.76158689  0.77975706     0.26900
H1272       H  0.17763807  0.81720278  0.74392520     0.15800
C1273       C  0.04536808  0.71113717  0.82852771    -0.11500
C1274       C  0.06340705  0.71568989  0.83907538     0.15000
C1275       C  0.09759266  0.72611220  0.83835250     0.01900
C1276       C  0.11231559  0.72937363  0.82711914    -0.15900
C1277       C  0.09373858  0.72314943  0.81659146    -0.10700
C1278       C  0.06023038  0.71514098  0.81732377     0.08600
C1279       C  0.04494384  0.70536432  0.85052770     0.09700
S1280       S  0.12326267  0.73434588  0.85143600    -0.25000
H1281       H  0.13802052  0.73554019  0.82659421     0.19900
S1282       S  0.03453165  0.70779525  0.80431890    -0.30700
H1283       H  0.01915917  0.70316693  0.82903121     0.10300
C1284       C  0.02943151  0.72198520  0.85538425     0.03500
C1285       C  0.01152858  0.71045863  0.86611637    -0.13000
C1286       C  0.00932355  0.68300678  0.87216523    -0.08700
C1287       C  0.02424237  0.66597479  0.86711422     0.06900
C1288       C  0.04185658  0.67733604  0.85638467    -0.13800
S1289       S  0.03412441  0.75897873  0.84832565    -0.30700
H1290       H  0.00051617  0.72379189  0.87011482     0.11200
S1291       S  0.02130457  0.62937375  0.87380804    -0.27800
H1292       H  0.05317498  0.66412078  0.85251357     0.08400
H1293       H  0.06055700  0.72822330  0.79651001     0.26800
H1294       H  0.01527702  0.76512136  0.85667320     0.21600
H1295       H  0.98953553  0.61742680  0.87880909     0.26900
H1296       H  0.10509721  0.74373364  0.85889033     0.15800
C1297       C  0.90092637  0.45428850  0.20488146    -0.11500
C1298       C  0.92398914  0.47043675  0.21408672     0.15000
C1299       C  0.93684370  0.45311947  0.22039604     0.01900
C1300       C  0.92752882  0.42064722  0.21696618    -0.15900
C1301       C  0.90513933  0.40486148  0.20753886    -0.10700
C1302       C  0.89125528  0.42170295  0.20158071     0.08600
C1303       C  0.93410070  0.50530169  0.21687211     0.09700
S1304       S  0.96573212  0.47125932  0.23267283    -0.25000
H1305       H  0.93842301  0.40786384  0.22148511     0.19900
S1306       S  0.86186208  0.40329620  0.18946901    -0.30700
H1307       H  0.89071216  0.46737392  0.20012702     0.10300
C1308       C  0.96597144  0.53196432  0.21392102     0.03500
C1309       C  0.97531207  0.56423056  0.21770682    -0.13000
C1310       C  0.95334632  0.57026409  0.22433961    -0.08700
C1311       C  0.92058962  0.54387847  0.22641898     0.06900
C1312       C  0.91137913  0.51169657  0.22273323    -0.13800
S1313       S  0.99504679  0.52475482  0.20567684    -0.30700
H1314       H  0.00051038  0.58446763  0.21615386     0.11200
S1315       S  0.88960905  0.54973770  0.23379611    -0.27800
H1316       H  0.88650574  0.49129431  0.22469163     0.08400
H1317       H  0.84792422  0.37014823  0.19330794     0.26800
H1318       H  0.01994016  0.55838470  0.20442716     0.21600
H1319       H  0.90259027  0.58277196  0.22992576     0.26900
H1320       H  0.95471878  0.49266671  0.23662146     0.15800
C1321       C  0.77698325  0.63150144  0.22630141    -0.11500
C1322       C  0.80232988  0.62675172  0.22178136     0.15000
C1323       C  0.79972838  0.61471638  0.20998441     0.01900
C1324       C  0.77196364  0.60771725  0.20300858    -0.15900
C1325       C  0.74639492  0.61220327  0.20752819    -0.10700
C1326       C  0.74935661  0.62481583  0.21927776     0.08600
C1327       C  0.83195810  0.63611075  0.22932104     0.09700
S1328       S  0.83119406  0.60840940  0.20315747    -0.25000
H1329       H  0.77003338  0.59818889  0.19404424     0.19900
S1330       S  0.71968528  0.63446757  0.22563810    -0.30700
H1331       H  0.77919104  0.64129726  0.23523901     0.10300
C1332       C  0.86054863  0.66794552  0.22854106     0.03500
C1333       C  0.88924319  0.67477342  0.23491565    -0.13000
C1334       C  0.89020792  0.65027052  0.24195496    -0.08700
C1335       C  0.86064234  0.61912813  0.24340509     0.06900
C1336       C  0.83185267  0.61241176  0.23706450    -0.13800
S1337       S  0.86086850  0.69933946  0.21898711    -0.30700
H1338       H  0.91177451  0.69882409  0.23380325     0.11200
S1339       S  0.85892351  0.58821050  0.25358763    -0.27800
H1340       H  0.80936049  0.58833136  0.23786739     0.08400
H1341       H  0.71171387  0.64399680  0.21477653     0.26800
H1342       H  0.89287141  0.72522176  0.22210973     0.21600
H1343       H  0.82652379  0.56275270  0.25067757     0.26900
H1344       H  0.84330626  0.60198839  0.21369800     0.15800
C1345       C  0.95655185  0.70464014  0.19071369    -0.11500
C1346       C  0.98399175  0.72732658  0.18387762     0.15000
C1347       C  0.01642083  0.73984201  0.18847978     0.01900
C1348       C  0.02059421  0.73084076  0.20000850    -0.15900
C1349       C  0.99310529  0.70902078  0.20701791    -0.10700
C1350       C  0.96079247  0.69480465  0.20209226     0.08600
C1351       C  0.97815554  0.73939957  0.17239088     0.09700
S1352       S  0.05341416  0.76766705  0.18014038    -0.25000
H1353       H  0.04553173  0.74140223  0.20361421     0.19900
S1354       S  0.92415063  0.66314817  0.20964010    -0.30700
H1355       H  0.93163347  0.69456609  0.18715514     0.10300
C1356       C  0.96538153  0.71867796  0.16224320     0.03500
C1357       C  0.96266577  0.73223256  0.15136537    -0.13000
C1358       C  0.97223740  0.76598045  0.15050298    -0.08700
C1359       C  0.98307137  0.78605677  0.16086890     0.06900
C1360       C  0.98622100  0.77268336  0.17163658    -0.13800
S1361       S  0.95451038  0.67562219  0.16293949    -0.30700
H1362       H  0.95446364  0.71696919  0.14339146     0.11200
S1363       S  0.99335140  0.82890531  0.16092546    -0.27800
H1364       H  0.99529295  0.78840873  0.17949430     0.08400
H1365       H  0.94000949  0.64816597  0.21542039     0.26800
H1366       H  0.94159153  0.66698985  0.15127443     0.21600
H1367       H  0.97191496  0.82572023  0.15151997     0.26900
H1368       H  0.03986408  0.75552808  0.16875194     0.15800
C1369       C  0.41721725  0.92267174  0.27890240    -0.11500
C1370       C  0.43965610  0.95674899  0.27708554     0.15000
C1371       C  0.42888475  0.97972961  0.27903195     0.01900
C1372       C  0.39592287  0.96823806  0.28227370    -0.15900
C1373       C  0.37331519  0.93423188  0.28399357    -0.10700
C1374       C  0.38433322  0.91123406  0.28255003     0.08600
C1375       C  0.47284080  0.96773928  0.27182777     0.09700
S1376       S  0.45596390  0.02410132  0.27741571    -0.25000
H1377       H  0.38781016  0.98609666  0.28355457     0.19900
S1378       S  0.35798746  0.86733814  0.28544072    -0.30700
H1379       H  0.42533927  0.90491449  0.27740743     0.10300
C1380       C  0.49897865  0.96838057  0.27839267     0.03500
C1381       C  0.53070482  0.98198164  0.27312850    -0.13000
C1382       C  0.53663905  0.99485469  0.26142875    -0.08700
C1383       C  0.51021414  0.99419081  0.25493154     0.06900
C1384       C  0.47870318  0.98025135  0.26015574    -0.13800
S1385       S  0.49219139  0.95298949  0.29356265    -0.30700
H1386       H  0.55090004  0.98248841  0.27809189     0.11200
S1387       S  0.51661620  0.01322505  0.24030519    -0.27800
H1388       H  0.45849145  0.97999631  0.25527077     0.08400
H1389       H  0.33941960  0.87080854  0.29465374     0.26800
H1390       H  0.52490553  0.96019882  0.29571574     0.21600
H1391       H  0.48372343  0.00564675  0.23832676     0.26900
H1392       H  0.48533813  0.02476563  0.28077908     0.15800
C1393       C  0.15993661  0.78572175  0.24912630    -0.11500
C1394       C  0.16030555  0.80842725  0.25745938     0.15000
C1395       C  0.13063774  0.80873121  0.25968127     0.01900
C1396       C  0.10088686  0.78464335  0.25437781    -0.15900
C1397       C  0.09999706  0.76051950  0.24661174    -0.10700
C1398       C  0.13025598  0.76214225  0.24355277     0.08600
C1399       C  0.19127107  0.83006576  0.26426998     0.09700
S1400       S  0.12886254  0.83839923  0.26956161    -0.25000
H1401       H  0.07802474  0.78402879  0.25669820     0.19900
S1402       S  0.13271864  0.73525039  0.23251898    -0.30700
H1403       H  0.18279684  0.78598384  0.24712126     0.10300
C1404       C  0.19374986  0.82452100  0.27653136     0.03500
C1405       C  0.22258604  0.84663309  0.28288446    -0.13000
C1406       C  0.24923972  0.87430546  0.27727123    -0.08700
C1407       C  0.24668261  0.87963652  0.26491947     0.06900
C1408       C  0.21803448  0.85720795  0.25854888    -0.13800
S1409       S  0.16045360  0.78875875  0.28403816    -0.30700
H1410       H  0.22461084  0.84215151  0.29227225     0.11200
S1411       S  0.27812229  0.91536219  0.25687878    -0.27800
H1412       H  0.21606193  0.86161165  0.24913374     0.08400
H1413       H  0.10694230  0.73298914  0.22529853     0.26800
H1414       H  0.17374731  0.79730639  0.29565490     0.21600
H1415       H  0.28779762  0.93743381  0.26662732     0.26900
H1416       H  0.16170681  0.86427435  0.26757084     0.15800
C1417       C  0.82543346  0.73740397  0.37615425    -0.11500
C1418       C  0.85092259  0.76654642  0.38141585     0.15000
C1419       C  0.84256614  0.78331376  0.38999782     0.01900
C1420       C  0.80949677  0.76923841  0.39381027    -0.15900
C1421       C  0.78403649  0.73878304  0.38915620    -0.10700
C1422       C  0.79218520  0.72362237  0.37977175     0.08600
C1423       C  0.88600052  0.77739154  0.37836143     0.09700
S1424       S  0.87314179  0.82188233  0.39687096    -0.25000
H1425       H  0.80398961  0.78164056  0.40086877     0.19900
S1426       S  0.76167298  0.68670737  0.37203919    -0.30700
H1427       H  0.83161645  0.72486190  0.36935000     0.10300
C1428       C  0.90640066  0.77218397  0.38632217     0.03500
C1429       C  0.93883664  0.78104702  0.38284725    -0.13000
C1430       C  0.95144930  0.79514670  0.37157347    -0.08700
C1431       C  0.93141785  0.80178851  0.36385675     0.06900
C1432       C  0.89883328  0.79230808  0.36723766    -0.13800
S1433       S  0.89050496  0.75258265  0.40066261    -0.30700
H1434       H  0.95401634  0.77571973  0.38874071     0.11200
S1435       S  0.94615061  0.82277114  0.34968285    -0.27800
H1436       H  0.88336584  0.79683170  0.36117603     0.08400
H1437       H  0.73725154  0.69595395  0.37195832     0.26800
H1438       H  0.92080116  0.75738066  0.40515370     0.21600
H1439       H  0.97983689  0.84152408  0.35301700     0.26900
H1440       H  0.89607159  0.83302868  0.38737409     0.15800
C1441       C  0.99163582  0.72397465  0.32788281    -0.11500
C1442       C  0.01369290  0.74415572  0.31888316     0.15000
C1443       C  0.03841426  0.77718107  0.32177576     0.01900
C1444       C  0.03917330  0.78973616  0.33325195    -0.15900
C1445       C  0.01638393  0.76986594  0.34214077    -0.10700
C1446       C  0.99323444  0.73610967  0.33948576     0.08600
C1447       C  0.00831444  0.73113471  0.30639243     0.09700
S1448       S  0.06940556  0.80475023  0.31118655    -0.25000
H1449       H  0.05719000  0.81553465  0.33515938     0.19900
S1450       S  0.96522296  0.70708525  0.35048923    -0.30700
H1451       H  0.97266394  0.69861131  0.32581073     0.10300
C1452       C  0.00904598  0.70209109  0.30332979     0.03500
C1453       C  0.00238978  0.69028582  0.29147584    -0.13000
C1454       C  0.99550911  0.70715405  0.28255513    -0.08700
C1455       C  0.99448512  0.73599098  0.28567587     0.06900
C1456       C  0.00084248  0.74757570  0.29748678    -0.13800
S1457       S  0.02012457  0.68094918  0.31430871    -0.30700
H1458       H  0.00353080  0.66844678  0.28904803     0.11200
S1459       S  0.98401904  0.75845824  0.27511166    -0.27800
H1460       H  0.99947443  0.76938703  0.29980518     0.08400
H1461       H  0.98612284  0.72266517  0.36036562     0.26800
H1462       H  0.01415278  0.65380138  0.30705362     0.21600
H1463       H  0.96062818  0.73010771  0.26876298     0.26900
H1464       H  0.07060993  0.77961449  0.30463980     0.15800
C1465       C  0.39337114  0.26296196  0.43680580    -0.11500
C1466       C  0.40301550  0.24440426  0.44387021     0.15000
C1467       C  0.42091519  0.25845840  0.45454571     0.01900
C1468       C  0.42855309  0.29052242  0.45792830    -0.15900
C1469       C  0.41908620  0.30918536  0.45082461    -0.10700
C1470       C  0.40077460  0.29491136  0.44024177     0.08600
C1471       C  0.39337976  0.21030521  0.43990042     0.09700
S1472       S  0.43427248  0.23669562  0.46431676    -0.25000
H1473       H  0.44227536  0.30117077  0.46613093     0.19900
S1474       S  0.38494311  0.31555629  0.43103112    -0.30700
H1475       H  0.37926720  0.25211684  0.42869267     0.10300
C1476       C  0.36474394  0.18198049  0.44436056     0.03500
C1477       C  0.35518813  0.15042654  0.43960961    -0.13000
C1478       C  0.37382577  0.14654167  0.43050331    -0.08700
C1479       C  0.40378642  0.17493372  0.42667734     0.06900
C1480       C  0.41277263  0.20640037  0.43121169    -0.13800
S1481       S  0.33958017  0.18627580  0.45570626    -0.30700
H1482       H  0.33224026  0.12892185  0.44261163     0.11200
S1483       S  0.43209908  0.17266915  0.41626623    -0.27800
H1484       H  0.43526453  0.22812395  0.42798217     0.08400
H1485       H  0.37928419  0.33208158  0.44045474     0.26800
H1486       H  0.31704958  0.15206890  0.45729311     0.21600
H1487       H  0.42664179  0.14193608  0.42056441     0.26900
H1488       H  0.43748554  0.21714245  0.45545317     0.15800
C1489       C  0.16593720  0.93234879  0.40460375    -0.11500
C1490       C  0.16423246  0.90592387  0.39801841     0.15000
C1491       C  0.19269667  0.90265804  0.39742590     0.01900
C1492       C  0.22253695  0.92674744  0.40281184    -0.15900
C1493       C  0.22484197  0.95422009  0.40895681    -0.10700
C1494       C  0.19552435  0.95606610  0.41020854     0.08600
C1495       C  0.13330653  0.88378510  0.39115787     0.09700
S1496       S  0.19283680  0.86897140  0.38955022    -0.25000
H1497       H  0.24449506  0.92462557  0.40177661     0.19900
S1498       S  0.19387988  0.98770323  0.41894429    -0.30700
H1499       H  0.14403622  0.93473035  0.40526902     0.10300
C1500       C  0.10449783  0.85817164  0.39672169     0.03500
C1501       C  0.07564531  0.83857602  0.38987153    -0.13000
C1502       C  0.07480446  0.84411162  0.37752677    -0.08700
C1503       C  0.10371852  0.87023978  0.37204605     0.06900
C1504       C  0.13258919  0.88931282  0.37885573    -0.13800
S1505       S  0.10477438  0.85005231  0.41250053    -0.30700
H1506       H  0.05365788  0.81864573  0.39411834     0.11200
S1507       S  0.10507658  0.88172520  0.35655223    -0.27800
H1508       H  0.15453433  0.90927960  0.37458168     0.08400
H1509       H  0.21521570  0.98833451  0.42797488     0.26800
H1510       H  0.07259363  0.82191895  0.41300913     0.21600
H1511       H  0.07177222  0.87398178  0.35598796     0.26900
H1512       H  0.15898268  0.84551767  0.39131014     0.15800
C1513       C  0.29052143  0.97644582  0.35755270    -0.11500
C1514       C  0.31701297  0.98153213  0.35016839     0.15000
C1515       C  0.34991524  0.00014758  0.35461730     0.01900
C1516       C  0.35546882  0.01306427  0.36626760    -0.15900
C1517       C  0.32885682  0.00697922  0.37378384    -0.10700
C1518       C  0.29600207  0.98890458  0.36924066     0.08600
C1519       C  0.30966656  0.96805220  0.33777798     0.09700
S1520       S  0.38577475  0.00729052  0.34605874    -0.25000
H1521       H  0.38072932  0.02683597  0.36966391     0.19900
S1522       S  0.25998208  0.98174229  0.37770472    -0.30700
H1523       H  0.26528906  0.96285226  0.35412289     0.10300
C1524       C  0.29138627  0.93346520  0.33551074     0.03500
C1525       C  0.28720443  0.92189315  0.32367403    -0.13000
C1526       C  0.30120392  0.94412621  0.31407178    -0.08700
C1527       C  0.31787979  0.97874004  0.31631402     0.06900
C1528       C  0.32184607  0.99027469  0.32810187    -0.13800
S1529       S  0.27592431  0.90389193  0.34768402    -0.30700
H1530       H  0.27496484  0.89538683  0.32193405     0.11200
S1531       S  0.33579111  0.00937722  0.30454692    -0.27800
H1532       H  0.33531972  0.01687490  0.32978354     0.08400
H1533       H  0.27611920  0.01189368  0.38407571     0.26800
H1534       H  0.25731661  0.87530928  0.34062020     0.21600
H1535       H  0.31440354  0.98895579  0.29542520     0.26900
H1536       H  0.36960825  0.97708972  0.33971192     0.15800
C1537       C  0.62109740  0.86199601  0.54385119    -0.11500
C1538       C  0.59749324  0.83450930  0.55047916     0.15000
C1539       C  0.58452394  0.83993127  0.56108704     0.01900
C1540       C  0.59636894  0.87247688  0.56510007    -0.15900
C1541       C  0.62070262  0.90009619  0.55867623    -0.10700
C1542       C  0.63245772  0.89462551  0.54772856     0.08600
C1543       C  0.58767598  0.80054398  0.54631261     0.09700
S1544       S  0.55333644  0.80633986  0.57001641    -0.25000
H1545       H  0.58718639  0.87616418  0.57351942     0.19900
S1546       S  0.66140103  0.92807224  0.53820275    -0.30700
H1547       H  0.63077537  0.85795992  0.53561315     0.10300
C1548       C  0.56784331  0.78673120  0.53604382     0.03500
C1549       C  0.55979876  0.75483387  0.53224373    -0.13000
C1550       C  0.57109185  0.73633645  0.53851427    -0.08700
C1551       C  0.59087429  0.75019191  0.54884180     0.06900
C1552       C  0.59870077  0.78198623  0.55267681    -0.13800
S1553       S  0.55208782  0.80939544  0.52795933    -0.30700
H1554       H  0.54460189  0.74411887  0.52434848     0.11200
S1555       S  0.60779614  0.72919799  0.55726469    -0.27800
H1556       H  0.61406977  0.79266641  0.56054636     0.08400
H1557       H  0.64903023  0.94928327  0.54088713     0.26800
H1558       H  0.53441840  0.78496113  0.51921943     0.21600
H1559       H  0.61135501  0.71219972  0.54751336     0.26900
H1560       H  0.53707415  0.78465385  0.56039125     0.15800
C1561       C  0.67111743  0.11356062  0.50356123    -0.11500
C1562       C  0.65427665  0.07922072  0.50576038     0.15000
C1563       C  0.63282930  0.05722544  0.49687606     0.01900
C1564       C  0.63103234  0.06979886  0.48567602    -0.15900
C1565       C  0.64886638  0.10416084  0.48329993    -0.10700
C1566       C  0.66799533  0.12627543  0.49261810     0.08600
C1567       C  0.65937021  0.06755134  0.51750298     0.09700
S1568       S  0.60686064  0.01304426  0.49931700    -0.25000
H1569       H  0.61577283  0.05258966  0.47874287     0.19900
S1570       S  0.68805587  0.17096154  0.49135507    -0.30700
H1571       H  0.68661778  0.13064304  0.51049099     0.10300
C1572       C  0.67604765  0.04952221  0.51856023     0.03500
C1573       C  0.68086870  0.03986191  0.52995032    -0.13000
C1574       C  0.67029091  0.04874407  0.54037639    -0.08700
C1575       C  0.65371150  0.06706959  0.53924809     0.06900
C1576       C  0.64846363  0.07612340  0.52784730    -0.13800
S1577       S  0.69266902  0.04025114  0.50547751    -0.30700
H1578       H  0.69367753  0.02607555  0.53076635     0.11200
S1579       S  0.63784185  0.07819441  0.55212041    -0.27800
H1580       H  0.63572788  0.08995685  0.52691952     0.08400
H1581       H  0.66434119  0.17079433  0.48353858     0.26800
H1582       H  0.70572013  0.02280581  0.51143098     0.21600
H1583       H  0.62538562  0.09590460  0.54598268     0.26900
H1584       H  0.60300187  0.01501896  0.51171422     0.15800
C1585       C  0.49557336  0.09755705  0.41855924    -0.11500
C1586       C  0.49558720  0.07562800  0.42715218     0.15000
C1587       C  0.46555547  0.04577703  0.42959559     0.01900
C1588       C  0.43615322  0.03912741  0.42375597    -0.15900
C1589       C  0.43581874  0.06158443  0.41543420    -0.10700
C1590       C  0.46626631  0.09078419  0.41262663     0.08600
C1591       C  0.52685716  0.08549436  0.43384672     0.09700
S1592       S  0.46294387  0.01573180  0.44035248    -0.25000
H1593       H  0.41308175  0.01669455  0.42604650     0.19900
S1594       S  0.46951990  0.12017410  0.40145855    -0.30700
H1595       H  0.51861302  0.12036582  0.41653864     0.10300
C1596       C  0.55313815  0.08301689  0.42871457     0.03500
C1597       C  0.58271283  0.09385614  0.43521709    -0.13000
C1598       C  0.58669292  0.10716716  0.44680595    -0.08700
C1599       C  0.56015266  0.10956162  0.45190907     0.06900
C1600       C  0.53056929  0.09839257  0.44544835    -0.13800
S1601       S  0.54864812  0.06535144  0.41397797    -0.30700
H1602       H  0.60284761  0.09175851  0.43129659     0.11200
S1603       S  0.56285500  0.12799412  0.46636766    -0.27800
H1604       H  0.51046234  0.10052418  0.44939224     0.08400
H1605       H  0.44454921  0.09627135  0.39398447     0.26800
H1606       H  0.57878097  0.06529833  0.41396604     0.21600
H1607       H  0.59696411  0.15180393  0.46560897     0.26900
H1608       H  0.49568099  0.02237125  0.43886668     0.15800
C1609       C  0.49952967  0.95529913  0.57326521    -0.11500
C1610       C  0.49646408  0.96257597  0.56130296     0.15000
C1611       C  0.52550407  0.98065292  0.55434362     0.01900
C1612       C  0.55669631  0.99130654  0.55943889    -0.15900
C1613       C  0.56009106  0.98387395  0.57137470    -0.10700
C1614       C  0.53087673  0.96585834  0.57839073     0.08600
C1615       C  0.46308043  0.95228416  0.55627273     0.09700
S1616       S  0.52439233  0.99028083  0.53877310    -0.25000
H1617       H  0.57855158  0.00463563  0.55382604     0.19900
S1618       S  0.53179564  0.95671375  0.59400000    -0.30700
H1619       H  0.47731714  0.94176366  0.57871124     0.10300
C1620       C  0.44040293  0.91892312  0.55317395     0.03500
C1621       C  0.41108953  0.91112987  0.54697738    -0.13000
C1622       C  0.40384859  0.93599447  0.54384573    -0.08700
C1623       C  0.42572446  0.96907596  0.54760406     0.06900
C1624       C  0.45515257  0.97687767  0.55362799    -0.13800
S1625       S  0.44972772  0.88660795  0.55647448    -0.30700
H1626       H  0.39424226  0.88574214  0.54418896     0.11200
S1627       S  0.41740071  0.00238135  0.54510928    -0.27800
H1628       H  0.47230711  0.00246023  0.55614477     0.08400
H1629       H  0.55954869  0.98803955  0.59669310     0.26800
H1630       H  0.42053638  0.86006445  0.55155322     0.21600
H1631       H  0.38254626  0.98233584  0.54564847     0.26900
H1632       H  0.49463801  0.96073340  0.53605157     0.15800
C1633       C  0.32012804  0.99723179  0.47083030    -0.11500
C1634       C  0.34508244  0.98926002  0.47246626     0.15000
C1635       C  0.36477576  0.99098030  0.46263200     0.01900
C1636       C  0.35807001  0.99885877  0.45132072    -0.15900
C1637       C  0.33247828  0.00607520  0.44945312    -0.10700
C1638       C  0.31404282  0.00626509  0.45955187     0.08600
C1639       C  0.34794871  0.97596521  0.48416100     0.09700
S1640       S  0.39855173  0.98283632  0.46393417    -0.25000
H1641       H  0.37321924  0.99922915  0.44388741     0.19900
S1642       S  0.28233874  0.01738721  0.45880309    -0.30700
H1643       H  0.30499641  0.99605049  0.47840838     0.10300
C1644       C  0.36034020  0.99609824  0.49445645     0.03500
C1645       C  0.36209349  0.98181004  0.50531805    -0.13000
C1646       C  0.35194101  0.94786604  0.50600325    -0.08700
C1647       C  0.34096312  0.92824976  0.49550897     0.06900
C1648       C  0.33858624  0.94232303  0.48480695    -0.13800
S1649       S  0.37414909  0.03990123  0.49371266    -0.30700
H1650       H  0.37044667  0.99678049  0.51336235     0.11200
S1651       S  0.32992660  0.88516779  0.49513013    -0.27800
H1652       H  0.32960219  0.92697399  0.47685457     0.08400
H1653       H  0.30366086  0.04843022  0.45343904     0.26800
H1654       H  0.38587004  0.04761089  0.50554923     0.21600
H1655       H  0.35153863  0.88766661  0.50436869     0.26900
H1656       H  0.40723329  0.99455980  0.47573460     0.15800
C1657       C  0.17276300  0.32326187  0.61031027    -0.11500
C1658       C  0.14811300  0.29056301  0.60750813     0.15000
C1659       C  0.15680304  0.27030722  0.60088525     0.01900
C1660       C  0.18963560  0.28346188  0.59694950    -0.15900
C1661       C  0.21412941  0.31662621  0.59934706    -0.10700
C1662       C  0.20560821  0.33641234  0.60638871     0.08600
C1663       C  0.11341102  0.27898889  0.61119075     0.09700
S1664       S  0.12695963  0.22801795  0.59676912    -0.25000
H1665       H  0.19581124  0.26809668  0.59149936     0.19900
S1666       S  0.23451157  0.37956218  0.60954466    -0.30700
H1667       H  0.16614893  0.33891479  0.61537001     0.10300
C1668       C  0.09892168  0.25833766  0.62123238     0.03500
C1669       C  0.06633577  0.24912988  0.62459409    -0.13000
C1670       C  0.04796287  0.26022314  0.61811354    -0.08700
C1671       C  0.06266690  0.28099682  0.60805507     0.06900
C1672       C  0.09506147  0.28991364  0.60466063    -0.13800
S1673       S  0.12224815  0.24448670  0.62992726    -0.30700
H1674       H  0.05513866  0.23348249  0.63234685     0.11200
S1675       S  0.04207902  0.29807964  0.59948267    -0.27800
H1676       H  0.10632318  0.30599639  0.59700621     0.08400
H1677       H  0.25727607  0.37287621  0.61527435     0.26800
H1678       H  0.09674035  0.22490726  0.63809594     0.21600
H1679       H  0.02474626  0.30146262  0.60916441     0.26900
H1680       H  0.09979488  0.23291057  0.59539014     0.15800
C1681       C  0.82811990  0.12753967  0.58309994    -0.11500
C1682       C  0.83063394  0.13283364  0.59551508     0.15000
C1683       C  0.80151810  0.11677783  0.60255898     0.01900
C1684       C  0.77068652  0.09658749  0.59707045    -0.15900
C1685       C  0.76790144  0.09115681  0.58462945    -0.10700
C1686       C  0.79721610  0.10708603  0.57758268     0.08600
C1687       C  0.86348887  0.15662230  0.60084791     0.09700
S1688       S  0.80208813  0.12064826  0.61863174    -0.25000
H1689       H  0.74866962  0.08419423  0.60267433     0.19900
S1690       S  0.79688498  0.10370817  0.56151629    -0.30700
H1691       H  0.85037935  0.14008351  0.57763012     0.10300
C1692       C  0.88828539  0.14821393  0.60253088     0.03500
C1693       C  0.91804117  0.17071834  0.60838865    -0.13000
C1694       C  0.92376077  0.20173485  0.61247291    -0.08700
C1695       C  0.89955866  0.21076156  0.61011397     0.06900
C1696       C  0.86957213  0.18795288  0.60456345    -0.13800
S1697       S  0.88133624  0.10820053  0.59772086    -0.30700
H1698       H  0.93655097  0.16374813  0.61012875     0.11200
S1699       S  0.90582480  0.25131252  0.61361693    -0.27800
H1700       H  0.85081029  0.19474935  0.60304740     0.08400
H1701       H  0.76778324  0.10530757  0.55997439     0.26800
H1702       H  0.91247901  0.11316625  0.60125072     0.21600
H1703       H  0.94053955  0.26853459  0.61200434     0.26900
H1704       H  0.83357807  0.12414867  0.62030901     0.15800
C1705       C  0.51792268  0.11510000  0.72210719    -0.11500
C1706       C  0.52401362  0.09397688  0.71501710     0.15000
C1707       C  0.49717629  0.06264600  0.71156667     0.01900
C1708       C  0.46528173  0.05219259  0.71598008    -0.15900
C1709       C  0.45951702  0.07253358  0.72367333    -0.10700
C1710       C  0.48592857  0.10490024  0.72632114     0.08600
C1711       C  0.55879778  0.10442728  0.71198059     0.09700
S1712       S  0.50231389  0.03435603  0.70202593    -0.25000
H1713       H  0.44517740  0.02729447  0.71388683     0.19900
S1714       S  0.48029996  0.13414924  0.73506241    -0.30700
H1715       H  0.53838289  0.13946629  0.72455726     0.10300
C1716       C  0.57628944  0.12844483  0.70308672     0.03500
C1717       C  0.60876663  0.13653653  0.70015668    -0.13000
C1718       C  0.62409148  0.12114169  0.70597629    -0.08700
C1719       C  0.60671778  0.09753018  0.71507001     0.06900
C1720       C  0.57435691  0.08964341  0.71803311    -0.13800
S1721       S  0.55673923  0.14771354  0.69513925    -0.30700
H1722       H  0.62212496  0.15438120  0.69313152     0.11200
S1723       S  0.62385611  0.07587068  0.72295132    -0.27800
H1724       H  0.56085872  0.07125916  0.72490973     0.08400
H1725       H  0.44771823  0.12277504  0.73101114     0.26800
H1726       H  0.58315533  0.16653441  0.68719055     0.21600
H1727       H  0.64328920  0.07518867  0.71346425     0.26900
H1728       H  0.52955930  0.05892779  0.69553072     0.15800
C1729       C  0.68295445  0.04277015  0.63519347    -0.11500
C1730       C  0.67233704  0.06525742  0.63793745     0.15000
C1731       C  0.65570194  0.07297165  0.62909056     0.01900
C1732       C  0.64978636  0.05782289  0.61782846    -0.15900
C1733       C  0.65978257  0.03469717  0.61507915    -0.10700
C1734       C  0.67721528  0.02772059  0.62391861     0.08600
C1735       C  0.67835038  0.07959731  0.65017122     0.09700
S1736       S  0.64096893  0.10155520  0.63160765    -0.25000
H1737       H  0.63676846  0.06391392  0.61120187     0.19900
S1738       S  0.69433596  0.00127813  0.62132939    -0.30700
H1739       H  0.69619212  0.03717127  0.64189128     0.10300
C1740       C  0.66152395  0.05939634  0.66011213     0.03500
C1741       C  0.66661711  0.07381465  0.67148504    -0.13000
C1742       C  0.68750981  0.10822985  0.67316371    -0.08700
C1743       C  0.70431473  0.12850524  0.66318317     0.06900
C1744       C  0.70011467  0.11388397  0.65185447    -0.13800
S1745       S  0.63200149  0.01551064  0.65824441    -0.30700
H1746       H  0.65348401  0.05838345  0.67911011     0.11200
S1747       S  0.72964244  0.17319247  0.66415551    -0.27800
H1748       H  0.71285544  0.12949195  0.64420911     0.08400
H1749       H  0.70939350  0.01685451  0.61044751     0.26800
H1750       H  0.62091375  0.00894074  0.67017948     0.21600
H1751       H  0.70998043  0.17707334  0.67281471     0.26900
H1752       H  0.63373966  0.09442320  0.64383101     0.15800
C1753       C  0.71026932  0.84673361  0.11222869    -0.11500
C1754       C  0.72765467  0.87556484  0.10524037     0.15000
C1755       C  0.73346002  0.87255707  0.09306993     0.01900
C1756       C  0.72179945  0.84105756  0.08815046    -0.15900
C1757       C  0.70331511  0.81177143  0.09494103    -0.10700
C1758       C  0.69813160  0.81497493  0.10728002     0.08600
C1759       C  0.73927025  0.90855030  0.11074471     0.09700
S1760       S  0.75449098  0.90792384  0.08319201    -0.25000
H1761       H  0.72635058  0.83961700  0.07870791     0.19900
S1762       S  0.67587863  0.78004096  0.11721121    -0.30700
H1763       H  0.70597755  0.84904431  0.12163868     0.10300
C1764       C  0.71663705  0.91886024  0.11390423     0.03500
C1765       C  0.72873563  0.95109626  0.11834514    -0.13000
C1766       C  0.76303190  0.97339557  0.11961870    -0.08700
C1767       C  0.78566124  0.96281582  0.11661222     0.06900
C1768       C  0.77354092  0.93062059  0.11214682    -0.13800
S1769       S  0.67244422  0.89154661  0.11173892    -0.30700
H1770       H  0.71146355  0.95928290  0.12066776     0.11200
S1771       S  0.83006746  0.98883848  0.11844265    -0.27800
H1772       H  0.79094888  0.92265911  0.10970844     0.08400
H1773       H  0.69510943  0.76563821  0.11419633     0.26800
H1774       H  0.66262733  0.91401463  0.11558843     0.21600
H1775       H  0.82874202  0.00638561  0.12846210     0.26900
H1776       H  0.74205560  0.92674011  0.08852300     0.15800
C1777       C  0.80787975  0.76024475  0.09796496    -0.11500
C1778       C  0.82745578  0.74794413  0.09332266     0.15000
C1779       C  0.81597188  0.72713643  0.08309598     0.01900
C1780       C  0.78567627  0.71967341  0.07770593    -0.15900
C1781       C  0.76681518  0.73321630  0.08208968    -0.10700
C1782       C  0.77796294  0.75316994  0.09255624     0.08600
C1783       C  0.85919552  0.75690780  0.09958731     0.09700
S1784       S  0.83922332  0.71016373  0.07629015    -0.25000
H1785       H  0.77733175  0.70405964  0.06979698     0.19900
S1786       S  0.75472597  0.76945704  0.09985860    -0.30700
H1787       H  0.81593021  0.77539692  0.10599662     0.10300
C1788       C  0.88540203  0.79028390  0.10043515     0.03500
C1789       C  0.91412650  0.79801078  0.10701064    -0.13000
C1790       C  0.91782485  0.77308994  0.11263597    -0.08700
C1791       C  0.89190303  0.73946223  0.11138526     0.06900
C1792       C  0.86278333  0.73191872  0.10514073    -0.13800
S1793       S  0.88263781  0.82313749  0.09293831    -0.30700
H1794       H  0.93367792  0.82371711  0.10791041     0.11200
S1795       S  0.89474336  0.70475337  0.11703711    -0.27800
H1796       H  0.84286521  0.70626822  0.10448091     0.08400
H1797       H  0.72347251  0.74101496  0.09790287     0.26800
H1798       H  0.91412464  0.84945750  0.09633456     0.21600
H1799       H  0.92928604  0.71967647  0.11532000     0.26900
H1800       H  0.87087858  0.73687503  0.07927320     0.15800
C1801       C  0.65336082  0.65283460  0.13299071    -0.11500
C1802       C  0.68509775  0.65741312  0.13501744     0.15000
C1803       C  0.70893770  0.67010982  0.12575820     0.01900
C1804       C  0.70012004  0.67695330  0.11461401    -0.15900
C1805       C  0.66808061  0.67184519  0.11241249    -0.10700
C1806       C  0.64471491  0.66022717  0.12189117     0.08600
C1807       C  0.69136369  0.64636056  0.14661100     0.09700
S1808       S  0.75065923  0.67731405  0.12731668    -0.25000
H1809       H  0.71862105  0.68630182  0.10756070     0.19900
S1810       S  0.60295715  0.65234360  0.12025693    -0.30700
H1811       H  0.63502035  0.64295332  0.14008119     0.10300
C1812       C  0.70246608  0.66744299  0.15668463     0.03500
C1813       C  0.70480245  0.65468918  0.16779521    -0.13000
C1814       C  0.69618254  0.62127517  0.16896351    -0.08700
C1815       C  0.68678641  0.60079423  0.15869822     0.06900
C1816       C  0.68421269  0.61345278  0.14767200    -0.13800
S1817       S  0.71276950  0.71022575  0.15538905    -0.30700
H1818       H  0.71192910  0.67029951  0.17570573     0.11200
S1819       S  0.67701793  0.55810378  0.15918415    -0.27800
H1820       H  0.67600400  0.59735733  0.13987537     0.08400
H1821       H  0.61371237  0.68609522  0.11817465     0.26800
H1822       H  0.72312370  0.71930453  0.16730534     0.21600
H1823       H  0.69811700  0.56226973  0.16883913     0.26900
H1824       H  0.75186074  0.67642612  0.13984413     0.15800
C1825       C  0.83448648  0.63445403  0.94254421    -0.11500
C1826       C  0.80900169  0.60593423  0.93697157     0.15000
C1827       C  0.81687143  0.59117647  0.92748701     0.01900
C1828       C  0.84976097  0.60612937  0.92344259    -0.15900
C1829       C  0.87527615  0.63542886  0.92874793    -0.10700
C1830       C  0.86749060  0.64891903  0.93873051     0.08600
C1831       C  0.77446230  0.59348507  0.94098600     0.09700
S1832       S  0.78607523  0.55386356  0.92000365    -0.25000
H1833       H  0.85516950  0.59530241  0.91581835     0.19900
S1834       S  0.89831169  0.68413927  0.94713094    -0.30700
H1835       H  0.82854007  0.64560417  0.94992254     0.10300
C1836       C  0.76407139  0.58035347  0.95256474     0.03500
C1837       C  0.73261679  0.57291407  0.95663324    -0.13000
C1838       C  0.71135302  0.57840726  0.94934895    -0.08700
C1839       C  0.72151783  0.59078426  0.93761105     0.06900
C1840       C  0.75280736  0.59784600  0.93352043    -0.13800
S1841       S  0.79085472  0.57291786  0.96212338    -0.30700
H1842       H  0.72456808  0.56303288  0.96553618     0.11200
S1843       S  0.69674517  0.60000268  0.92769003    -0.27800
H1844       H  0.76095697  0.60822711  0.92466855     0.08400
H1845       H  0.92269129  0.67493983  0.94627213     0.26800
H1846       H  0.76985995  0.56213937  0.97220027     0.21600
H1847       H  0.68311609  0.61061475  0.93668781     0.26900
H1848       H  0.76453342  0.54019756  0.92985452     0.15800
C1849       C  0.66565070  0.65043629  0.99217174    -0.11500
C1850       C  0.65572964  0.63207102  0.00284336     0.15000
C1851       C  0.64159998  0.59715424  0.00241679     0.01900
C1852       C  0.63808757  0.58152951  0.99138805    -0.15900
C1853       C  0.64911411  0.60004976  0.98078381    -0.10700
C1854       C  0.66255291  0.63483596  0.98116267     0.08600
C1855       C  0.66040859  0.64988600  0.01428476     0.09700
S1856       S  0.62870199  0.57128235  0.01561980    -0.25000
H1857       H  0.62796191  0.55483825  0.99112169     0.19900
S1858       S  0.67634461  0.66062369  0.96795203    -0.30700
H1859       H  0.67609251  0.67716921  0.99244934     0.10300
C1860       C  0.69241611  0.67080149  0.01908312     0.03500
C1861       C  0.69561700  0.68503796  0.03042555    -0.13000
C1862       C  0.66742951  0.67834366  0.03710571    -0.08700
C1863       C  0.63547024  0.65889129  0.03196685     0.06900
C1864       C  0.63232261  0.64469213  0.02067822    -0.13800
S1865       S  0.72907643  0.67754925  0.01113440    -0.30700
H1866       H  0.72004300  0.70006790  0.03436341     0.11200
S1867       S  0.59779550  0.65158695  0.03924689    -0.27800
H1868       H  0.60774245  0.62911174  0.01688597     0.08400
H1869       H  0.65427522  0.63599214  0.95996192     0.26800
H1870       H  0.75212535  0.69543822  0.02024299     0.21600
H1871       H  0.61249639  0.68167683  0.04566371     0.26900
H1872       H  0.65274210  0.59513351  0.02335072     0.15800
C1873       C  0.24049704  0.43358069  0.05212679    -0.11500
C1874       C  0.21815722  0.43667371  0.04457739     0.15000
C1875       C  0.22923349  0.45186480  0.03327459     0.01900
C1876       C  0.26198166  0.46293621  0.02970555    -0.15900
C1877       C  0.28396996  0.45858553  0.03703124    -0.10700
C1878       C  0.27312968  0.44399831  0.04844643     0.08600
C1879       C  0.18329440  0.42287020  0.04865505     0.09700
S1880       S  0.20255650  0.45670005  0.02280753    -0.25000
H1881       H  0.27012256  0.47411035  0.02092267     0.19900
S1882       S  0.29962671  0.43609717  0.05799691    -0.30700
H1883       H  0.23182547  0.42187095  0.06079924     0.10300
C1884       C  0.16207951  0.38835333  0.05024068     0.03500
C1885       C  0.12997027  0.37628046  0.05478679    -0.13000
C1886       C  0.11811849  0.39783053  0.05768757    -0.08700
C1887       C  0.13881531  0.43229779  0.05530015     0.06900
C1888       C  0.17128670  0.44442825  0.05106622    -0.13800
S1889       S  0.17577458  0.35952459  0.04638770    -0.30700
H1890       H  0.11434768  0.34982009  0.05640212     0.11200
S1891       S  0.12524760  0.46201095  0.05712353    -0.17000
H1892       H  0.18733352  0.47092912  0.04957041     0.08400
H1893       H  0.27872152  0.42564494  0.06809802     0.26800
H1894       H  0.14648130  0.33021984  0.04973378     0.21600
H1895       H  0.09293691  0.44057281  0.05274210     0.26900
H1896       H  0.17310610  0.42741411  0.02601647     0.15800
C1897       C  0.46606902  0.56265900  0.04128332    -0.11500
C1898       C  0.46853208  0.55370558  0.05306880     0.15000
C1899       C  0.44055072  0.52621929  0.05835386     0.01900
C1900       C  0.41115188  0.50821074  0.05173281    -0.15900
C1901       C  0.40882092  0.51674666  0.03985411    -0.10700
C1902       C  0.43657271  0.54484593  0.03469508     0.08600
C1903       C  0.49998340  0.57467600  0.05977002     0.09700
S1904       S  0.44083497  0.51259895  0.07343742    -0.25000
H1905       H  0.39002507  0.48678079  0.05582076     0.19900
S1906       S  0.43551547  0.56028390  0.02000699    -0.30700
H1907       H  0.48717746  0.58427415  0.03727259     0.10300
C1908       C  0.52974718  0.57546947  0.05672904     0.03500
C1909       C  0.55936047  0.59732683  0.06279559    -0.13000
C1910       C  0.56001540  0.61891560  0.07171505    -0.08700
C1911       C  0.52971763  0.61659882  0.07519054     0.06900
C1912       C  0.50024871  0.59485831  0.06912619    -0.13800
S1913       S  0.53013984  0.54910011  0.04496000    -0.30700
H1914       H  0.58246164  0.59895177  0.06010985     0.11200
S1915       S  0.52693425  0.64038280  0.08739423    -0.27800
H1916       H  0.47730288  0.59388947  0.07164223     0.08400
H1917       H  0.40160964  0.55048656  0.02035179     0.26800
H1918       H  0.56400234  0.55899495  0.04590449     0.21600
H1919       H  0.55286599  0.64127200  0.09412339     0.26900
H1920       H  0.47489548  0.52308695  0.07376817     0.15800
C1921       C  0.23036255  0.12208540  0.86752631    -0.11500
C1922       C  0.24733895  0.13246690  0.87844829     0.15000
C1923       C  0.25160003  0.10967924  0.88545345     0.01900
C1924       C  0.24084588  0.07784314  0.88099777    -0.15900
C1925       C  0.22511741  0.06786211  0.86983480    -0.10700
C1926       C  0.21885014  0.08992579  0.86320524     0.08600
C1927       C  0.26146773  0.16751441  0.88207245     0.09700
S1928       S  0.27128327  0.11988515  0.89997127    -0.25000
H1929       H  0.24553427  0.06093255  0.88616277     0.19900
S1930       S  0.19636891  0.07861095  0.84923380    -0.30700
H1931       H  0.22649261  0.13936698  0.86224861     0.10300
C1932       C  0.29607882  0.18955078  0.88233626     0.03500
C1933       C  0.30852052  0.22173795  0.88681474    -0.13000
C1934       C  0.28708720  0.23274715  0.89083750    -0.08700
C1935       C  0.25225333  0.21134700  0.88946902     0.06900
C1936       C  0.23990927  0.17884395  0.88532595    -0.13800
S1937       S  0.32443548  0.17668623  0.87698274    -0.30700
H1938       H  0.33516461  0.23799404  0.88750938     0.11200
S1939       S  0.22211985  0.22371108  0.89262391    -0.27800
H1940       H  0.21328006  0.16214736  0.88469902     0.08400
H1941       H  0.17685065  0.04439912  0.85173616     0.26800
H1942       H  0.35410484  0.20633601  0.87971398     0.21600
H1943       H  0.24132801  0.25564732  0.88761971     0.26900
H1944       H  0.26265948  0.14381141  0.90299545     0.15800
C1945       C  0.46974231  0.46680270  0.93104561    -0.11500
C1946       C  0.49519234  0.45981394  0.92907839     0.15000
C1947       C  0.49007823  0.43444068  0.92098726     0.01900
C1948       C  0.45955083  0.41655368  0.91507050    -0.15900
C1949       C  0.43342570  0.42264906  0.91729928    -0.10700
C1950       C  0.43918324  0.44892444  0.92517548     0.08600
C1951       C  0.52723034  0.48049790  0.93523956     0.09700
S1952       S  0.52125453  0.42334725  0.91799735    -0.25000
H1953       H  0.45573936  0.39662293  0.90907050     0.19900
S1954       S  0.40930699  0.46187167  0.92788360    -0.30700
H1955       H  0.47398065  0.48683161  0.93708141     0.10300
C1956       C  0.55444497  0.50690566  0.92930924     0.03500
C1957       C  0.58415298  0.52647659  0.93557178    -0.13000
C1958       C  0.58721645  0.52013029  0.94764999    -0.08700
C1959       C  0.55995620  0.49317546  0.95350379     0.06900
C1960       C  0.53014470  0.47400779  0.94727907    -0.13800
S1961       S  0.55092266  0.51630198  0.91388690    -0.30700
H1962       H  0.60496755  0.54733669  0.93112560     0.11200
S1963       S  0.56183027  0.48133728  0.96872468    -0.27800
H1964       H  0.50912139  0.45346561  0.95179483     0.08400
H1965       H  0.39898022  0.45830081  0.91586953     0.26800
H1966       H  0.58412753  0.54208196  0.91247620     0.21600
H1967       H  0.59585132  0.49156796  0.96851960     0.26900
H1968       H  0.53623699  0.43171587  0.92934958     0.15800
C1969       C  0.35073910  0.38040078  0.96681096    -0.11500
C1970       C  0.33170708  0.39428789  0.97056236     0.15000
C1971       C  0.30746897  0.39346681  0.96277184     0.01900
C1972       C  0.30333837  0.37957147  0.95134629    -0.15900
C1973       C  0.32239407  0.36571211  0.94753646    -0.10700
C1974       C  0.34660440  0.36643915  0.95538368     0.08600
C1975       C  0.33860422  0.41079704  0.98241094     0.09700
S1976       S  0.28103389  0.40972695  0.96688018    -0.25000
H1977       H  0.28475314  0.37917767  0.94543474     0.19900
S1978       S  0.37449097  0.35203408  0.95112464    -0.30700
H1979       H  0.36961296  0.38133881  0.97270622     0.10300
C1980       C  0.32731988  0.39220303  0.99306951     0.03500
C1981       C  0.33198878  0.40881521  0.00400742    -0.13000
C1982       C  0.34781566  0.44368910  0.00452013    -0.08700
C1983       C  0.35988448  0.46228923  0.99383982     0.06900
C1984       C  0.35543236  0.44567226  0.98293889    -0.13800
S1985       S  0.30537392  0.34728515  0.99265899    -0.30700
H1986       H  0.32249796  0.39461906  0.01218931     0.11200
S1987       S  0.37961728  0.50701784  0.99341335    -0.27800
H1988       H  0.36412241  0.45996255  0.97473784     0.08400
H1989       H  0.37988517  0.36499796  0.93943875     0.26800
H1990       H  0.30207385  0.34229363  0.00511452     0.21600
H1991       H  0.36024618  0.50962902  0.00251575     0.26900
H1992       H  0.27956652  0.40258100  0.97915932     0.15800
C1993       C  0.05136944  0.54591295  0.75947688    -0.11500
C1994       C  0.06127030  0.55076185  0.77146751     0.15000
C1995       C  0.05773240  0.52366254  0.77828013     0.01900
C1996       C  0.04484919  0.49238030  0.77286256    -0.15900
C1997       C  0.03491335  0.48737965  0.76080720    -0.10700
C1998       C  0.03798758  0.51462253  0.75406408     0.08600
C1999       C  0.07385175  0.58427957  0.77658435     0.09700
S2000       S  0.06937775  0.52735522  0.79384034    -0.25000
H2001       H  0.04250929  0.47176047  0.77811363     0.19900
S2002       S  0.02311212  0.50983823  0.73880132    -0.30700
H2003       H  0.05370695  0.56680649  0.75441999     0.10300
C2004       C  0.10807015  0.60802745  0.77695903     0.03500
C2005       C  0.11851878  0.64018962  0.78123168    -0.13000
C2006       C  0.09531943  0.64903871  0.78505612    -0.08700
C2007       C  0.06094320  0.62518025  0.78448151     0.06900
C2008       C  0.05066401  0.59308080  0.78028351    -0.13800
S2009       S  0.13822916  0.59748088  0.77175263    -0.30700
H2010       H  0.14479937  0.65852951  0.78163117     0.11200
S2011       S  0.02984310  0.63585128  0.78833289    -0.27800
H2012       H  0.02441122  0.57476976  0.77966245     0.08400
H2013       H  0.03232644  0.54320351  0.73677560     0.26800
H2014       H  0.16666987  0.62850309  0.77418175     0.21600
H2015       H  0.00179151  0.60403275  0.78665917     0.26900
H2016       H  0.06415523  0.55368846  0.79668986     0.15800
C2017       C  0.85840718  0.23392519  0.73423920    -0.11500
C2018       C  0.83395535  0.24130934  0.73083043     0.15000
C2019       C  0.83815212  0.27257036  0.73386197     0.01900
C2020       C  0.86759846  0.29650572  0.73938292    -0.15900
C2021       C  0.89332588  0.29015735  0.74222097    -0.10700
C2022       C  0.88792719  0.25781250  0.73983927     0.08600
C2023       C  0.80534911  0.21691750  0.72349350     0.09700
S2024       S  0.80725872  0.28386193  0.73059261    -0.25000
H2025       H  0.87055386  0.32066530  0.74124457     0.19900
S2026       S  0.91775737  0.24538827  0.74328186    -0.30700
H2027       H  0.85504334  0.20973308  0.73208203     0.10300
C2028       C  0.80315179  0.22241735  0.71120309     0.03500
C2029       C  0.77441552  0.20027380  0.70478198    -0.13000
C2030       C  0.74787012  0.17234393  0.71033692    -0.08700
C2031       C  0.75117444  0.16585665  0.72250246     0.06900
C2032       C  0.77961514  0.18834509  0.72894988    -0.13800
S2033       S  0.83697834  0.25773780  0.70370283    -0.30700
H2034       H  0.77219827  0.20520554  0.69547914     0.11200
S2035       S  0.72047964  0.12908725  0.73028164    -0.27800
H2036       H  0.78159754  0.18370821  0.73831354     0.08400
H2037       H  0.94158816  0.26848388  0.73528520     0.26800
H2038       H  0.82213532  0.25142604  0.69231929     0.21600
H2039       H  0.70964590  0.10840931  0.72012779     0.26900
H2040       H  0.77952560  0.25148911  0.73122981     0.15800
C2041       C  0.00788393  0.34063728  0.68648152    -0.11500
C2042       C  0.98237806  0.30752141  0.68499760     0.15000
C2043       C  0.96273141  0.28988409  0.69494834     0.01900
C2044       C  0.96959161  0.30536343  0.70616486    -0.15900
C2045       C  0.99539353  0.33860925  0.70780597    -0.10700
C2046       C  0.01432948  0.35650087  0.69763169     0.08600
C2047       C  0.97858872  0.29149850  0.67317157     0.09700
S2048       S  0.92859275  0.24754236  0.69394448    -0.25000
H2049       H  0.95426631  0.29111122  0.71367414     0.19900
S2050       S  0.04741789  0.39928569  0.69810869    -0.30700
H2051       H  0.02309845  0.35424340  0.67884666     0.10300
C2052       C  0.96596786  0.29988642  0.66314634     0.03500
C2053       C  0.96501848  0.28563105  0.65195251    -0.13000
C2054       C  0.97660087  0.26326640  0.65060042    -0.08700
C2055       C  0.98799284  0.25396597  0.66078403     0.06900
C2056       C  0.98906698  0.26831008  0.67189861    -0.13800
S2057       S  0.95129238  0.32886866  0.66461524    -0.30700
H2058       H  0.95632894  0.29272313  0.64415611     0.11200
S2059       S  0.00171258  0.22411214  0.66018892    -0.27800
H2060       H  0.99848594  0.26163435  0.67960449     0.08400
H2061       H  0.02657230  0.41058090  0.70246282     0.26800
H2062       H  0.93994219  0.32615652  0.65277851     0.21600
H2063       H  0.98119925  0.20551176  0.65058902     0.26900
H2064       H  0.92046928  0.24927235  0.68195828     0.15800
C2065       C  0.03393122  0.34578782  0.79898861    -0.11500
C2066       C  0.00628179  0.32903777  0.80649519     0.15000
C2067       C  0.97519762  0.32411086  0.80272476     0.01900
C2068       C  0.97202411  0.33407412  0.79120666    -0.15900
C2069       C  0.99938442  0.34933562  0.78338079    -0.10700
C2070       C  0.03098273  0.35639747  0.78760318     0.08600
C2071       C  0.01008829  0.31424509  0.81764345     0.09700
S2072       S  0.93842221  0.30391736  0.81196975    -0.25000
H2073       H  0.94775261  0.32883701  0.78821129     0.19900
S2074       S  0.06870560  0.37919950  0.77905880    -0.30700
H2075       H  0.05791285  0.35006456  0.80194643     0.10300
C2076       C  0.99972725  0.28017471  0.81817090     0.03500
C2077       C  0.00287241  0.26661210  0.82891292    -0.13000
C2078       C  0.01667522  0.28652436  0.83910822    -0.08700
C2079       C  0.02821207  0.32093321  0.83847025     0.06900
C2080       C  0.02490000  0.33451314  0.82769135    -0.13800
S2081       S  0.98256731  0.25396305  0.80513520    -0.30700
H2082       H  0.99412862  0.24025303  0.82946507     0.11200
S2083       S  0.04551517  0.34718211  0.85148394    -0.27800
H2084       H  0.03322379  0.36076706  0.82710774     0.08400
H2085       H  0.05993168  0.40155334  0.77421427     0.26800
H2086       H  0.98115033  0.22549254  0.81004134     0.21600
H2087       H  0.05007979  0.37660506  0.84621295     0.26900
H2088       H  0.95501900  0.31266995  0.82303246     0.15800
C2089       C  0.11601852  0.29930868  0.88865644    -0.11500
C2090       C  0.13266651  0.28225586  0.88577869     0.15000
C2091       C  0.11909797  0.25692196  0.87700981     0.01900
C2092       C  0.09004861  0.25027488  0.87097610    -0.15900
C2093       C  0.07390056  0.26796704  0.87364323    -0.10700
C2094       C  0.08691382  0.29258728  0.88266883     0.08600
C2095       C  0.16537492  0.29335255  0.89140337     0.09700
S2096       S  0.13783699  0.23255667  0.87303056    -0.25000
H2097       H  0.07984739  0.23105074  0.86415937     0.19900
S2098       S  0.06763503  0.31614474  0.88709687    -0.30700
H2099       H  0.12634658  0.31871213  0.89540416     0.10300
C2100       C  0.19506340  0.31213728  0.88490116     0.03500
C2101       C  0.22559329  0.32253663  0.89051223    -0.13000
C2102       C  0.22738241  0.31509056  0.90260109    -0.08700
C2103       C  0.19748021  0.29723876  0.90921938     0.06900
C2104       C  0.16685862  0.28628063  0.90351448    -0.13800
S2105       S  0.19420508  0.32357013  0.86950266    -0.30700
H2106       H  0.24823917  0.33631601  0.88537220     0.11200
S2107       S  0.19659734  0.28903459  0.92500863    -0.27800
H2108       H  0.14401930  0.27254158  0.90857974     0.08400
H2109       H  0.05138302  0.31394242  0.87628989     0.26800
H2110       H  0.22882937  0.34129514  0.86762595     0.21600
H2111       H  0.22399685  0.32054296  0.92776242     0.26900
H2112       H  0.15384590  0.23580425  0.88402049     0.15800
C2113       C  0.21986138  0.46196145  0.76788734    -0.11500
C2114       C  0.19182666  0.42978443  0.76836602     0.15000
C2115       C  0.19383215  0.40518359  0.77511645     0.01900
C2116       C  0.22375595  0.41296890  0.78079886    -0.15900
C2117       C  0.25162322  0.44540120  0.78055562    -0.10700
C2118       C  0.24893622  0.47037465  0.77427348     0.08600
C2119       C  0.16109485  0.42279694  0.76173702     0.09700
S2120       S  0.15891112  0.36365938  0.77715516    -0.25000
H2121       H  0.22511516  0.39347460  0.78555734     0.19900
S2122       S  0.28050631  0.51390043  0.77464278    -0.30700
H2123       H  0.21870808  0.48108991  0.76278496     0.10300
C2124       C  0.14526534  0.44134854  0.76386399     0.03500
C2125       C  0.11662871  0.43411716  0.75735761    -0.13000
C2126       C  0.10220217  0.40771235  0.74909735    -0.08700
C2127       C  0.11840827  0.38955479  0.74682076     0.06900
C2128       C  0.14762062  0.39740281  0.75307365    -0.13800
S2129       S  0.15975047  0.47258526  0.77550914    -0.30700
H2130       H  0.10425203  0.44791685  0.75925043     0.11200
S2131       S  0.10373273  0.35677037  0.73585430    -0.27800
H2132       H  0.15994931  0.38354343  0.75118211     0.08400
H2133       H  0.29072979  0.51337018  0.78644146     0.26800
H2134       H  0.13454797  0.48055076  0.77438738     0.21600
H2135       H  0.09263166  0.37209672  0.72772663     0.26900
H2136       H  0.13459303  0.37299661  0.77717228     0.15800
C2137       C  0.31008339  0.36225368  0.85295617    -0.11500
C2138       C  0.32541250  0.39601058  0.84982604     0.15000
C2139       C  0.34666425  0.42025560  0.85819672     0.01900
C2140       C  0.35163859  0.41034545  0.86946879    -0.15900
C2141       C  0.33669429  0.37656355  0.87258627    -0.10700
C2142       C  0.31535768  0.35226943  0.86417831     0.08600
C2143       C  0.31858314  0.40537210  0.83787632     0.09700
S2144       S  0.36879669  0.46424402  0.85496066    -0.25000
H2145       H  0.36801095  0.42926371  0.87577381     0.19900
S2146       S  0.29275017  0.30825770  0.86734408    -0.30700
H2147       H  0.29341960  0.34352186  0.84665306     0.10300
C2148       C  0.32977936  0.39784848  0.82725433     0.03500
C2149       C  0.32585642  0.41008145  0.81628498    -0.13000
C2150       C  0.31108614  0.42986508  0.81562756    -0.08700
C2151       C  0.29880269  0.43638775  0.82623195     0.06900
C2152       C  0.30226973  0.42370573  0.83717941    -0.13800
S2153       S  0.35094155  0.37441993  0.82767954    -0.30700
H2154       H  0.33519912  0.40503888  0.80816935     0.11200
S2155       S  0.28032907  0.46223784  0.82655929    -0.27800
H2156       H  0.29344872  0.42935305  0.84530462     0.08400
H2157       H  0.28416906  0.31184247  0.87909122     0.26800
H2158       H  0.35367201  0.37205113  0.81522672     0.21600
H2159       H  0.30061811  0.48434864  0.81757029     0.26900
H2160       H  0.37333899  0.46108201  0.84269292     0.15800
C2161       C  0.55418012  0.45953809  0.69989264    -0.11500
C2162       C  0.54656253  0.47289764  0.70979267     0.15000
C2163       C  0.51765873  0.45239551  0.71658593     0.01900
C2164       C  0.49704745  0.41907777  0.71333676    -0.15900
C2165       C  0.50413290  0.40582704  0.70326355    -0.10700
C2166       C  0.53342677  0.42619439  0.69660742     0.08600
C2167       C  0.56941788  0.50796217  0.71315087     0.09700
S2168       S  0.50527845  0.46737646  0.72934348    -0.25000
H2169       H  0.47439030  0.40380491  0.71835402     0.19900
S2170       S  0.54569972  0.41104644  0.68389181    -0.30700
H2171       H  0.57652876  0.47510999  0.69476484     0.10300
C2172       C  0.59043317  0.51598338  0.72313114     0.03500
C2173       C  0.60643881  0.54848781  0.72761867    -0.13000
C2174       C  0.60180512  0.57327308  0.72235666    -0.08700
C2175       C  0.58298424  0.56568132  0.71166361     0.06900
C2176       C  0.56726156  0.53317168  0.70713717    -0.13800
S2177       S  0.59558094  0.48436042  0.73046290    -0.30700
H2178       H  0.62153853  0.55426063  0.73560411     0.11200
S2179       S  0.57554397  0.59516762  0.70392934    -0.27800
H2180       H  0.55132043  0.52693645  0.69935262     0.08400
H2181       H  0.52976090  0.37765285  0.68764149     0.26800
H2182       H  0.61931631  0.50542774  0.73890961     0.21600
H2183       H  0.56356856  0.60332088  0.71416566     0.26900
H2184       H  0.51850375  0.50022622  0.72529851     0.15800
C2185       C  0.48274775  0.55878676  0.75619515    -0.11500
C2186       C  0.47583526  0.56377670  0.76793437     0.15000
C2187       C  0.50180631  0.58827240  0.77506188     0.01900
C2188       C  0.53377834  0.60775054  0.77014457    -0.15900
C2189       C  0.54068244  0.60294214  0.75831184    -0.10700
C2190       C  0.51468063  0.57751636  0.75138619     0.08600
C2191       C  0.44149095  0.54200425  0.77245728     0.09700
S2192       S  0.49593024  0.59589288  0.79045023    -0.25000
H2193       H  0.55339917  0.62684792  0.77560119     0.19900
S2194       S  0.52078486  0.56598731  0.73662190    -0.30700
H2195       H  0.46309048  0.53951741  0.75078247     0.10300
C2196       C  0.41929691  0.55381037  0.77415296     0.03500
C2197       C  0.38697363  0.53196176  0.77839654    -0.13000
C2198       C  0.37634583  0.49848351  0.78086652    -0.08700
C2199       C  0.39822584  0.48645918  0.77863903     0.06900
C2200       C  0.43051202  0.50833949  0.77456083    -0.13800
S2201       S  0.43204804  0.59652569  0.77078553    -0.30700
H2202       H  0.37007003  0.54107584  0.78004935     0.11200
S2203       S  0.38630860  0.44341902  0.78067014    -0.27800
H2204       H  0.44729245  0.49902073  0.77296225     0.08400
H2205       H  0.54891399  0.56439276  0.74005092     0.26800
H2206       H  0.40222461  0.59480548  0.77426796     0.21600
H2207       H  0.35233802  0.43017821  0.77816978     0.26900
H2208       H  0.46907644  0.56393825  0.79295418     0.15800
C2209       C  0.86423428  0.78809712  0.86992537    -0.11500
C2210       C  0.85469494  0.76616903  0.87965158     0.15000
C2211       C  0.82407544  0.75610004  0.88543662     0.01900
C2212       C  0.80378819  0.76819127  0.88141427    -0.15900
C2213       C  0.81299094  0.78967805  0.87155233    -0.10700
C2214       C  0.84388448  0.80010656  0.86586359     0.08600
C2215       C  0.87770897  0.75537183  0.88400899     0.09700
S2216       S  0.80922795  0.72736940  0.89784371    -0.25000
H2217       H  0.78003408  0.75985831  0.88576605     0.19900
S2218       S  0.85921209  0.82934102  0.85362347    -0.30700
H2219       H  0.88798446  0.79629363  0.86558034     0.10300
C2220       C  0.88141237  0.73091022  0.87796866     0.03500
C2221       C  0.90078348  0.71896355  0.88314340    -0.13000
C2222       C  0.91672875  0.73116039  0.89420591    -0.08700
C2223       C  0.91341072  0.75625624  0.90008101     0.06900
C2224       C  0.89437679  0.76831052  0.89484548    -0.13800
S2225       S  0.86026056  0.71387925  0.86395847    -0.30700
H2226       H  0.90321479  0.69972952  0.87863513     0.11200
S2227       S  0.93036460  0.77204941  0.91470738    -0.27800
H2228       H  0.89130341  0.78696921  0.89951943     0.08400
H2229       H  0.84294799  0.84653800  0.85700222     0.26800
H2230       H  0.87274359  0.69243301  0.86197667     0.21600
H2231       H  0.92044049  0.74055398  0.91958604     0.26900
H2232       H  0.82362375  0.70869488  0.89410941     0.15800
C2233       C  0.74828831  0.77933874  0.81732820    -0.11500
C2234       C  0.71419564  0.75678783  0.81586194     0.15000
C2235       C  0.69249947  0.74968039  0.82569309     0.01900
C2236       C  0.70556777  0.76460435  0.83680110    -0.15900
C2237       C  0.73990915  0.78614571  0.83837689    -0.10700
C2238       C  0.76126418  0.79444145  0.82837324     0.08600
C2239       C  0.70259830  0.74087999  0.80399441     0.09700
S2240       S  0.64820959  0.72119370  0.82479584    -0.25000
H2241       H  0.68898374  0.75818916  0.84441199     0.19900
S2242       S  0.80516311  0.82455254  0.82903360    -0.30700
H2243       H  0.76493135  0.78533474  0.80975674     0.10300
C2244       C  0.68568571  0.75056559  0.79601433     0.03500
C2245       C  0.67700625  0.73598826  0.78461076    -0.13000
C2246       C  0.68518590  0.71213020  0.78094404    -0.08700
C2247       C  0.70248588  0.70280166  0.78896841     0.06900
C2248       C  0.71062064  0.71696996  0.80040447    -0.13800
S2249       S  0.67620198  0.78229082  0.80017709    -0.30700
H2250       H  0.66397442  0.74337213  0.77846894     0.11200
S2251       S  0.71692867  0.67481970  0.78494155    -0.27800
H2252       H  0.72419679  0.71000843  0.80646563     0.08400
H2253       H  0.80282996  0.84378359  0.83826459     0.26800
H2254       H  0.66007998  0.78181906  0.78948024     0.21600
H2255       H  0.72736933  0.68798695  0.77337792     0.26900
H2256       H  0.64898814  0.70142482  0.81545914     0.15800
C2257       C  0.51666242  0.97153996  0.77395190    -0.11500
C2258       C  0.48265999  0.94736217  0.77412601     0.15000
C2259       C  0.47300586  0.91424357  0.77725291     0.01900
C2260       C  0.49736056  0.90633159  0.78027873    -0.15900
C2261       C  0.53119523  0.93086770  0.78053413    -0.10700
C2262       C  0.54090478  0.96373687  0.77714153     0.08600
C2263       C  0.45837893  0.95736070  0.77033883     0.09700
S2264       S  0.43010368  0.88130909  0.77808391    -0.25000
H2265       H  0.48975162  0.88113182  0.78300412     0.19900
S2266       S  0.58379307  0.99685934  0.77670461    -0.30700
H2267       H  0.52440327  0.99679008  0.77126268     0.10300
C2268       C  0.45561082  0.98245132  0.77638650     0.03500
C2269       C  0.43537737  0.99393723  0.77160891    -0.13000
C2270       C  0.41727145  0.98049518  0.76098760    -0.08700
C2271       C  0.41788439  0.95324203  0.75559960     0.06900
C2272       C  0.43900738  0.94271640  0.76011501    -0.13800
S2273       S  0.47785520  0.99992996  0.79019608    -0.30700
H2274       H  0.43465722  0.01430057  0.77594018     0.11200
S2275       S  0.39199340  0.93023341  0.74309559    -0.27800
H2276       H  0.44049208  0.92300472  0.75556983     0.08400
H2277       H  0.59739544  0.97649668  0.77448589     0.26800
H2278       H  0.46555887  0.02144598  0.79237733     0.21600
H2279       H  0.36403817  0.93111731  0.74729540     0.26900
H2280       H  0.41737585  0.90175220  0.78146151     0.15800
C2281       C  0.63192036  0.80915729  0.74936634    -0.11500
C2282       C  0.61541145  0.80093203  0.76047598     0.15000
C2283       C  0.60401626  0.76885033  0.76526000     0.01900
C2284       C  0.60867798  0.74579565  0.75883179    -0.15900
C2285       C  0.62566081  0.75413635  0.74786076    -0.10700
C2286       C  0.63727741  0.78620508  0.74304765     0.08600
C2287       C  0.60847179  0.82520368  0.76659666     0.09700
S2288       S  0.58439380  0.75611099  0.77973974    -0.25000
H2289       H  0.60020928  0.72144947  0.76271005     0.19900
S2290       S  0.65798743  0.79884485  0.72875513    -0.30700
H2291       H  0.64027920  0.83349654  0.74551322     0.10300
C2292       C  0.63410259  0.85578413  0.77117172     0.03500
C2293       C  0.62591031  0.87706628  0.77731024    -0.13000
C2294       C  0.59255853  0.86815204  0.77921743    -0.08700
C2295       C  0.56704130  0.83692902  0.77494931     0.06900
C2296       C  0.57524661  0.81644947  0.76843379    -0.13800
S2297       S  0.67715329  0.86713517  0.76961714    -0.30700
H2298       H  0.64553631  0.90081929  0.78061462     0.11200
S2299       S  0.52355150  0.82066440  0.77813759    -0.27800
H2300       H  0.55544743  0.79275368  0.76512478     0.08400
H2301       H  0.64174737  0.76692046  0.72359405     0.26800
H2302       H  0.69087923  0.89736137  0.77593164     0.21600
H2303       H  0.52869590  0.83545282  0.78950583     0.26900
H2304       H  0.60241035  0.78772901  0.78507424     0.15800
C2305       C  0.75422046  0.93835069  0.60338578    -0.11500
C2306       C  0.73971236  0.90504245  0.59958806     0.15000
C2307       C  0.71291326  0.89246190  0.59139415     0.01900
C2308       C  0.70005522  0.91238674  0.58783689    -0.15900
C2309       C  0.71442220  0.94554262  0.59161204    -0.10700
C2310       C  0.74258098  0.95900734  0.59916398     0.08600
C2311       C  0.75079264  0.88297797  0.60492682     0.09700
S2312       S  0.69422268  0.85135808  0.58493114    -0.25000
H2313       H  0.67902975  0.90211387  0.58178160     0.19900
S2314       S  0.76328150  0.00147950  0.60426877    -0.30700
H2315       H  0.77454400  0.94823847  0.60972437     0.10300
C2316       C  0.78373283  0.88942039  0.60386845     0.03500
C2317       C  0.79201511  0.86663107  0.60866758    -0.13000
C2318       C  0.76780070  0.83682002  0.61409888    -0.08700
C2319       C  0.73457531  0.83004006  0.61468411     0.06900
C2320       C  0.72692618  0.85370456  0.61063877    -0.13800
S2321       S  0.81491491  0.92575348  0.59596966    -0.30700
H2322       H  0.81741745  0.87199588  0.60816710     0.11200
S2323       S  0.70002827  0.79068602  0.61953472    -0.27800
H2324       H  0.70157386  0.84843210  0.61139165     0.08400
H2325       H  0.76818262  0.01515420  0.59272974     0.26800
H2326       H  0.84096846  0.91903743  0.59714622     0.21600
H2327       H  0.71305512  0.77145485  0.61502567     0.26900
H2328       H  0.72343258  0.84956980  0.58502607     0.15800
C2329       C  0.71145138  0.72675666  0.65983353    -0.11500
C2330       C  0.73006373  0.74156242  0.67021236     0.15000
C2331       C  0.76398787  0.76640139  0.66911931     0.01900
C2332       C  0.77834509  0.77612115  0.65774934    -0.15900
C2333       C  0.75944813  0.76211005  0.64738771    -0.10700
C2334       C  0.72570617  0.73678824  0.64845334     0.08600
C2335       C  0.71385049  0.73029531  0.68207615     0.09700
S2336       S  0.78993167  0.78759923  0.68185342    -0.25000
H2337       H  0.80410154  0.79587594  0.65695608     0.19900
S2338       S  0.69927475  0.71694934  0.63568093    -0.30700
H2339       H  0.68552565  0.70739418  0.66061855     0.10300
C2340       C  0.68950631  0.73750948  0.68608488     0.03500
C2341       C  0.67688514  0.72865816  0.69776321    -0.13000
C2342       C  0.68810323  0.71273652  0.70553379    -0.08700
C2343       C  0.71126043  0.70400804  0.70125099     0.06900
C2344       C  0.72397208  0.71308911  0.68961303    -0.13800
S2345       S  0.67558941  0.75929598  0.67653249    -0.30700
H2346       H  0.65885468  0.73497152  0.70097571     0.11200
S2347       S  0.72366032  0.67991968  0.71025996    -0.27800
H2348       H  0.74211963  0.70701333  0.68633236     0.08400
H2349       H  0.72465727  0.72254710  0.62758587     0.26800
H2350       H  0.65289026  0.75995393  0.68466244     0.21600
H2351       H  0.74578539  0.67887847  0.70195851     0.26900
H2352       H  0.76455801  0.78657120  0.68897091     0.15800
C2353       C  0.88642260  0.48541241  0.70192044    -0.11500
C2354       C  0.90665632  0.49289117  0.71206565     0.15000
C2355       C  0.91681866  0.52298793  0.71828327     0.01900
C2356       C  0.90645395  0.54472118  0.71425287    -0.15900
C2357       C  0.88682433  0.53762572  0.70394573    -0.10700
C2358       C  0.87618662  0.50723553  0.69785911     0.08600
C2359       C  0.91687919  0.46899737  0.71597219     0.09700
S2360       S  0.94376058  0.53561856  0.73120119    -0.25000
H2361       H  0.91496808  0.56808927  0.71890791     0.19900
S2362       S  0.84920620  0.49466686  0.68497237    -0.30700
H2363       H  0.87832398  0.46223046  0.69718647     0.10300
C2364       C  0.90417964  0.45018343  0.72650337     0.03500
C2365       C  0.91779385  0.43133331  0.73071381    -0.13000
C2366       C  0.94400374  0.43071682  0.72464075    -0.08700
C2367       C  0.95450666  0.44736280  0.71347525     0.06900
C2368       C  0.94109438  0.46651486  0.70936322    -0.13800
S2369       S  0.87113909  0.45080239  0.73473769    -0.30700
H2370       H  0.90866058  0.41788908  0.73904774     0.11200
S2371       S  0.98611747  0.44700291  0.70434820    -0.27800
H2372       H  0.95037730  0.48048409  0.70112254     0.08400
H2373       H  0.83262007  0.51165301  0.68820654     0.26800
H2374       H  0.87114659  0.43208436  0.74460324     0.21600
H2375       H  0.97004052  0.41202427  0.70416543     0.26900
H2376       H  0.96128825  0.51961434  0.72796731     0.15800
C2377       C  0.78992786  0.67466283  0.73127275    -0.11500
C2378       C  0.78078326  0.64124548  0.72969329     0.15000
C2379       C  0.75060938  0.61612515  0.73463121     0.01900
C2380       C  0.72910817  0.62468326  0.74014662    -0.15900
C2381       C  0.73686169  0.65802202  0.74108233    -0.10700
C2382       C  0.76851320  0.68347752  0.73696424     0.08600
C2383       C  0.80183655  0.63302098  0.72214555     0.09700
S2384       S  0.73729932  0.57246594  0.73367860    -0.25000
H2385       H  0.70545595  0.60469724  0.74342680     0.19900
S2386       S  0.78158015  0.72709776  0.73821499    -0.30700
H2387       H  0.81342507  0.69381271  0.72758413     0.10300
C2388       C  0.79197057  0.62028628  0.71046746     0.03500
C2389       C  0.81139001  0.61073779  0.70386501    -0.13000
C2390       C  0.84060201  0.61371381  0.70866912    -0.08700
C2391       C  0.85105589  0.62766948  0.72021648     0.06900
C2392       C  0.83150043  0.63696935  0.72683818    -0.13800
S2393       S  0.75454927  0.61609348  0.70398338    -0.30700
H2394       H  0.80351639  0.60030247  0.69501267     0.11200
S2395       S  0.88927309  0.63477715  0.72693092    -0.27800
H2396       H  0.83928136  0.64708655  0.73573977     0.08400
H2397       H  0.81341107  0.73993108  0.73316350     0.26800
H2398       H  0.75666657  0.60278994  0.69294247     0.21600
H2399       H  0.90695929  0.64085916  0.71613361     0.26900
H2400       H  0.76931199  0.57660314  0.73343844     0.15800
C2401       C  0.82429542  0.13464458  0.87638821    -0.11500
C2402       C  0.84991385  0.13045611  0.88096789     0.15000
C2403       C  0.84246990  0.10627972  0.88989003     0.01900
C2404       C  0.81020881  0.08845393  0.89459143    -0.15900
C2405       C  0.78476324  0.09379541  0.89047465    -0.10700
C2406       C  0.79182346  0.11624399  0.88085785     0.08600
C2407       C  0.88451380  0.15384171  0.87708044     0.09700
S2408       S  0.87330162  0.09780810  0.89589684    -0.25000
H2409       H  0.80536736  0.07120247  0.90182854     0.19900
S2410       S  0.76079291  0.12263283  0.87380230    -0.30700
H2411       H  0.82978905  0.15282989  0.86943371     0.10300
C2412       C  0.89510980  0.15407968  0.86525660     0.03500
C2413       C  0.92754981  0.17809569  0.86187862    -0.13000
C2414       C  0.94951639  0.20241374  0.86999412    -0.08700
C2415       C  0.93864830  0.20214231  0.88184010     0.06900
C2416       C  0.90657781  0.17756841  0.88527941    -0.13800
S2417       S  0.86744461  0.12370151  0.85449603    -0.30700
H2418       H  0.93584081  0.17819307  0.85281155     0.11200
S2419       S  0.96338135  0.23356459  0.89276547    -0.27800
H2420       H  0.89821098  0.17773029  0.89432457     0.08400
H2421       H  0.73537214  0.08928121  0.87489809     0.26800
H2422       H  0.89017735  0.13426288  0.84492819     0.21600
H2423       H  0.97817101  0.26004346  0.88455078     0.26900
H2424       H  0.89287867  0.10629996  0.88547988     0.15800
C2425       C  0.84171892  0.25240307  0.94620210    -0.11500
C2426       C  0.81410845  0.24610337  0.93922991     0.15000
C2427       C  0.80819455  0.27248694  0.93688064     0.01900
C2428       C  0.82908857  0.30383610  0.94194081    -0.15900
C2429       C  0.85704728  0.31017070  0.94874328    -0.10700
C2430       C  0.86409797  0.28428472  0.95038148     0.08600
C2431       C  0.79204878  0.21167152  0.93477103     0.09700
S2432       S  0.77496493  0.26815467  0.92738540    -0.25000
H2433       H  0.82344885  0.32340429  0.94054664     0.19900
S2434       S  0.90201781  0.29040499  0.95707688    -0.30700
H2435       H  0.84648047  0.23246283  0.94810813     0.10300
C2436       C  0.80498588  0.19465626  0.92833562     0.03500
C2437       C  0.78380432  0.16145620  0.92507392    -0.13000
C2438       C  0.74957028  0.14506190  0.92753758    -0.08700
C2439       C  0.73639346  0.16235338  0.93369195     0.06900
C2440       C  0.75789888  0.19511072  0.93746045    -0.13800
S2441       S  0.84790387  0.21561924  0.92342504    -0.30700
H2442       H  0.79372406  0.14865993  0.91996574     0.11200
S2443       S  0.69272422  0.14461230  0.93702018    -0.27800
H2444       H  0.74787521  0.20786787  0.94253055     0.08400
H2445       H  0.92194242  0.32349877  0.95317689     0.26800
H2446       H  0.84808599  0.18717541  0.91933257     0.21600
H2447       H  0.68464524  0.11132345  0.93741122     0.26900
H2448       H  0.77522225  0.24445566  0.91966746     0.15800
C2449       C  0.75417341  0.89236375  0.88819774    -0.11500
C2450       C  0.71991172  0.87939171  0.88979419     0.15000
C2451       C  0.69733227  0.84748556  0.88520554     0.01900
C2452       C  0.70936223  0.82999846  0.87875237    -0.15900
C2453       C  0.74361788  0.84333860  0.87686447    -0.10700
C2454       C  0.76625294  0.87491494  0.88175764     0.08600
C2455       C  0.70867244  0.90151914  0.89486993     0.09700
S2456       S  0.65293054  0.82785020  0.88722596    -0.25000
H2457       H  0.69180158  0.80568304  0.87516008     0.19900
S2458       S  0.81062816  0.89543407  0.87946488    -0.30700
H2459       H  0.77163157  0.91707719  0.89150947     0.10300
C2460       C  0.71659065  0.91400864  0.90663590     0.03500
C2461       C  0.70866677  0.93785654  0.91049015    -0.13000
C2462       C  0.69271958  0.94946291  0.90286023    -0.08700
C2463       C  0.68403291  0.93601319  0.89113619     0.06900
C2464       C  0.69190699  0.91222771  0.88736156    -0.13800
S2465       S  0.73627637  0.89915602  0.91680611    -0.30700
H2466       H  0.71502936  0.94757544  0.91950949     0.11200
S2467       S  0.66485367  0.94936096  0.88019564    -0.27800
H2468       H  0.68606139  0.90288741  0.87826481     0.08400
H2469       H  0.80889233  0.88339957  0.86778637     0.26800
H2470       H  0.73528001  0.91641252  0.92697681     0.21600
H2471       H  0.68736672  0.98345853  0.88210240     0.26900
H2472       H  0.65431480  0.84395892  0.89803437     0.15800
C2473       C  0.60219957  0.97201527  0.85832336    -0.11500
C2474       C  0.62849166  0.98184767  0.85016584     0.15000
C2475       C  0.66080025  0.00678034  0.85358754     0.01900
C2476       C  0.66604038  0.02114418  0.86493658    -0.15900
C2477       C  0.64000596  0.01097840  0.87327128    -0.10700
C2478       C  0.60748031  0.98626260  0.86975820     0.08600
C2479       C  0.62114518  0.96762189  0.83787769     0.09700
S2480       S  0.69673385  0.02071228  0.84406037    -0.25000
H2481       H  0.69124423  0.03952599  0.86743004     0.19900
S2482       S  0.57145321  0.97247868  0.87917454    -0.30700
H2483       H  0.57713483  0.95347591  0.85565452     0.10300
C2484       C  0.60791565  0.93333128  0.83571224     0.03500
C2485       C  0.60002186  0.92109875  0.82393496    -0.13000
C2486       C  0.60556493  0.94253566  0.81425348    -0.08700
C2487       C  0.62075990  0.97712765  0.81643149     0.06900
C2488       C  0.62750374  0.98906795  0.82816784    -0.13800
S2489       S  0.60153168  0.90524540  0.84790004    -0.30700
H2490       H  0.58859475  0.89462507  0.82228127     0.11200
S2491       S  0.63273011  0.00746818  0.80462025    -0.27800
H2492       H  0.63810835  0.01551776  0.82975566     0.08400
H2493       H  0.58090510  0.00465830  0.88324684     0.26800
H2494       H  0.58616899  0.87574839  0.84112378     0.21600
H2495       H  0.63801639  0.98878394  0.79593576     0.26900
H2496       H  0.68532199  0.99007791  0.83822332     0.15800
C2497       C  0.42908756  0.27737319  0.93379762    -0.11500
C2498       C  0.40840636  0.24470735  0.93782773     0.15000
C2499       C  0.37366199  0.23123587  0.93793000     0.01900
C2500       C  0.36023793  0.24929109  0.93292336    -0.15900
C2501       C  0.38066144  0.28144071  0.92818929    -0.10700
C2502       C  0.41569888  0.29613449  0.92925818     0.08600
C2503       C  0.42329513  0.22458134  0.94148074     0.09700
S2504       S  0.34503651  0.19079023  0.94410170    -0.25000
H2505       H  0.33343251  0.23765682  0.93257363     0.19900
S2506       S  0.44485620  0.33857664  0.92524176    -0.30700
H2507       H  0.45582126  0.28821132  0.93410467     0.10300
C2508       C  0.41791294  0.19670325  0.93472928     0.03500
C2509       C  0.42802690  0.17530524  0.93935804    -0.13000
C2510       C  0.44409255  0.18167707  0.95046960    -0.08700
C2511       C  0.45226981  0.21131781  0.95665258     0.06900
C2512       C  0.44139812  0.23223341  0.95218107    -0.13800
S2513       S  0.39769955  0.18812226  0.92030432    -0.30700
H2514       H  0.42235808  0.15289113  0.93453437     0.11200
S2515       S  0.47643781  0.22368419  0.97024504    -0.27800
H2516       H  0.44640216  0.25418695  0.95720047     0.08400
H2517       H  0.42619696  0.35127330  0.93054591     0.26800
H2518       H  0.40059961  0.16028062  0.91751689     0.21600
H2519       H  0.49452790  0.20779956  0.96764441     0.26900
H2520       H  0.36680984  0.19113702  0.95286956     0.15800
C2521       C  0.54861912  0.12365217  0.93981101    -0.11500
C2522       C  0.53484363  0.09093700  0.93560481     0.15000
C2523       C  0.50098599  0.06773071  0.93793690     0.01900
C2524       C  0.48182210  0.07764030  0.94447815    -0.15900
C2525       C  0.49559595  0.11041909  0.94865971    -0.10700
C2526       C  0.52952237  0.13355248  0.94636795     0.08600
C2527       C  0.55727353  0.08092855  0.92999403     0.09700
S2528       S  0.48081493  0.02522546  0.93277044    -0.25000
H2529       H  0.45579685  0.05984039  0.94611917     0.19900
S2530       S  0.55028047  0.17566315  0.95197056    -0.30700
H2531       H  0.57474968  0.14131966  0.93829283     0.10300
C2532       C  0.57112721  0.09195747  0.91852688     0.03500
C2533       C  0.59279476  0.08211045  0.91380001    -0.13000
C2534       C  0.60115058  0.06156044  0.92034052    -0.08700
C2535       C  0.58771684  0.05150768  0.93204392     0.06900
C2536       C  0.56569039  0.06079365  0.93656994    -0.13800
S2537       S  0.56054298  0.11789149  0.90982236    -0.30700
H2538       H  0.60307304  0.09029671  0.90491445     0.11200
S2539       S  0.59883248  0.02853637  0.94209416    -0.27800
H2540       H  0.55558838  0.05293482  0.94552439     0.08400
H2541       H  0.53119570  0.16850102  0.96247110     0.26800
H2542       H  0.57713286  0.11800877  0.89928857     0.21600
H2543       H  0.63310412  0.04902133  0.93994105     0.26900
H2544       H  0.50091660  0.03143300  0.92260537     0.15800
C2545       C  0.59419179  0.85924786  0.05028482    -0.11500
C2546       C  0.57791594  0.82703086  0.04539692     0.15000
C2547       C  0.55040274  0.81727693  0.03773810     0.01900
C2548       C  0.54028210  0.84006538  0.03493263    -0.15900
C2549       C  0.55739141  0.87262490  0.03944696    -0.10700
C2550       C  0.58441229  0.88225269  0.04727722     0.08600
C2551       C  0.59019028  0.80427002  0.04857344     0.09700
S2552       S  0.52826504  0.77680963  0.03079122    -0.25000
H2553       H  0.52000034  0.83293526  0.02870565     0.19900
S2554       S  0.60755217  0.92436965  0.05287873    -0.30700
H2555       H  0.61509177  0.86651854  0.05621864     0.10300
C2556       C  0.62169021  0.81048314  0.04476242     0.03500
C2557       C  0.63364740  0.79007050  0.04888697    -0.13000
C2558       C  0.61470382  0.76347289  0.05671623    -0.08700
C2559       C  0.58212220  0.75585586  0.05974608     0.06900
C2560       C  0.57046026  0.77656904  0.05580737    -0.13800
S2561       S  0.64686266  0.84469817  0.03478553    -0.30700
H2562       H  0.65860475  0.79593542  0.04649817     0.11200
S2563       S  0.55418478  0.71988949  0.06848917    -0.27800
H2564       H  0.54584960  0.77124957  0.05850663     0.08400
H2565       H  0.62972591  0.91993442  0.06008144     0.26800
H2566       H  0.67289014  0.83800948  0.03340699     0.21600
H2567       H  0.56586430  0.69963855  0.06384317     0.26900
H2568       H  0.55580597  0.77235858  0.02977791     0.15800
C2569       C  0.57425353  0.96093292  0.98457923    -0.11500
C2570       C  0.60737028  0.96876840  0.98306789     0.15000
C2571       C  0.62497880  0.96699085  0.99303050     0.01900
C2572       C  0.60936954  0.95781680  0.00419653    -0.15900
C2573       C  0.57573269  0.94839117  0.00564083    -0.10700
C2574       C  0.55795798  0.94977664  0.99560837     0.08600
C2575       C  0.62288461  0.97859431  0.97103011     0.09700
S2576       S  0.66687303  0.97456903  0.99200770    -0.25000
H2577       H  0.62330946  0.95684304  0.01176136     0.19900
S2578       S  0.51407807  0.93553148  0.99597410    -0.30700
H2579       H  0.56061053  0.96225288  0.97697472     0.10300
C2580       C  0.61057113  0.95649963  0.96125452     0.03500
C2581       C  0.62594037  0.96689039  0.95004275    -0.13000
C2582       C  0.65371637  0.99895164  0.94826192    -0.08700
C2583       C  0.66631383  0.02081404  0.95824437     0.06900
C2584       C  0.65072286  0.01039666  0.96940767    -0.13800
S2585       S  0.57606624  0.91450338  0.96310709    -0.30700
H2586       H  0.61617174  0.94969416  0.94260921     0.11200
S2587       S  0.70172277  0.06238029  0.95754235    -0.27800
H2588       H  0.66025580  0.02739368  0.97692983     0.08400
H2589       H  0.50559383  0.90853490  0.00368343     0.26800
H2590       H  0.57308544  0.90496600  0.95102155     0.21600
H2591       H  0.68864871  0.07183534  0.94806835     0.26900
H2592       H  0.66353005  0.96147746  0.98041789     0.15800
C2593       C  0.92162960  0.18018981  0.38716094    -0.11500
C2594       C  0.88888087  0.16831313  0.38333936     0.15000
C2595       C  0.87565731  0.18958608  0.38370210     0.01900
C2596       C  0.89444823  0.22129810  0.38864430    -0.15900
C2597       C  0.92697380  0.23314221  0.39288097    -0.10700
C2598       C  0.94114575  0.21263219  0.39157446     0.08600
C2599       C  0.86847101  0.13348850  0.37925893     0.09700
S2600       S  0.83480936  0.17762508  0.37808469    -0.25000
H2601       H  0.88318343  0.23659896  0.38931515     0.19900
S2602       S  0.98400843  0.22637439  0.39493791    -0.30700
H2603       H  0.93210540  0.16417346  0.38659617     0.10300
C2604       C  0.87445911  0.12303143  0.36818951     0.03500
C2605       C  0.85159663  0.09118952  0.36389804    -0.13000
C2606       C  0.82286865  0.06969101  0.37045488    -0.08700
C2607       C  0.81760956  0.07986411  0.38176576     0.06900
C2608       C  0.84069826  0.11143477  0.38610161    -0.13800
S2609       S  0.91005644  0.15087349  0.35919971    -0.30700
H2610       H  0.85556952  0.08322747  0.35529151     0.11200
S2611       S  0.78105987  0.05486953  0.39076144    -0.27800
H2612       H  0.83614123  0.11955843  0.39458809     0.08400
H2613       H  0.99616037  0.25814844  0.38993412     0.26800
H2614       H  0.90368431  0.12874035  0.34965831     0.21600
H2615       H  0.75882605  0.04113859  0.38110530     0.26900
H2616       H  0.83490844  0.15744848  0.36874923     0.15800
C2617       C  0.82308206  0.27234662  0.43175012    -0.11500
C2618       C  0.81291809  0.24197800  0.43749594     0.15000
C2619       C  0.83630174  0.23179027  0.43942079     0.01900
C2620       C  0.86868637  0.25112139  0.43497476    -0.15900
C2621       C  0.87894175  0.28111691  0.42876941    -0.10700
C2622       C  0.85579332  0.29230105  0.42758667     0.08600
C2623       C  0.77760179  0.22085815  0.44108519     0.09700
S2624       S  0.82612630  0.19383344  0.44717351    -0.25000
H2625       H  0.88575321  0.24210271  0.43619901     0.19900
S2626       S  0.86570401  0.33137203  0.42082352    -0.30700
H2627       H  0.80533050  0.28048934  0.43046705     0.10300
C2628       C  0.76526714  0.22735528  0.45161027     0.03500
C2629       C  0.73264781  0.20476934  0.45533161    -0.13000
C2630       C  0.71197246  0.17579068  0.44871646    -0.08700
C2631       C  0.72406330  0.17008843  0.43790044     0.06900
C2632       C  0.75661802  0.19275485  0.43418202    -0.13800
S2633       S  0.79164482  0.26350510  0.46060722    -0.30700
H2634       H  0.72337714  0.20919095  0.46358235     0.11200
S2635       S  0.70004050  0.13365926  0.42877075    -0.27800
H2636       H  0.76610452  0.18785058  0.42607455     0.08400
H2637       H  0.89520287  0.34995343  0.42744740     0.26800
H2638       H  0.76781172  0.25799526  0.46941430     0.21600
H2639       H  0.68430395  0.11159112  0.43835036     0.26900
H2640       H  0.80211066  0.19355286  0.45485029     0.15800
C2641       C  0.05035783  0.51051375  0.27427589    -0.11500
C2642       C  0.07499568  0.54350013  0.27188034     0.15000
C2643       C  0.10884303  0.55307814  0.27315061     0.01900
C2644       C  0.11717937  0.52974151  0.27719265    -0.15900
C2645       C  0.09244343  0.49679812  0.27975410    -0.10700
C2646       C  0.05866852  0.48703310  0.27800592     0.08600
C2647       C  0.06424249  0.56661969  0.26759090     0.09700
S2648       S  0.14242006  0.59459477  0.26990693    -0.25000
H2649       H  0.14312615  0.53744234  0.27852027     0.19900
S2650       S  0.02500259  0.44487736  0.28018891    -0.30700
H2651       H  0.02440688  0.50290553  0.27305351     0.10300
C2652       C  0.05377359  0.56501389  0.25569144     0.03500
C2653       C  0.04200624  0.58581109  0.25199299    -0.13000
C2654       C  0.04037574  0.60846776  0.25990394    -0.08700
C2655       C  0.05155079  0.61052174  0.27180893     0.06900
C2656       C  0.06309904  0.58936788  0.27554890    -0.13800
S2657       S  0.05555010  0.53651018  0.24515847    -0.30700
H2658       H  0.03340033  0.58391747  0.24287810     0.11200
S2659       S  0.05267955  0.64004980  0.28248523    -0.27800
H2660       H  0.07132125  0.59067200  0.28469332     0.08400
H2661       H  0.04331037  0.42951760  0.27714301     0.26800
H2662       H  0.04139477  0.54389133  0.23538291     0.21600
H2663       H  0.06137001  0.66568840  0.27410378     0.26900
H2664       H  0.12570223  0.60221003  0.26115416     0.15800
C2665       C  0.06522115  0.40615929  0.35957203    -0.11500
C2666       C  0.04353034  0.39557342  0.34975755     0.15000
C2667       C  0.00893194  0.37561184  0.35178989     0.01900
C2668       C  0.99694448  0.36688018  0.36352733    -0.15900
C2669       C  0.01855908  0.37864717  0.37342163    -0.10700
C2670       C  0.05328504  0.39847803  0.37134417     0.08600
C2671       C  0.05805022  0.40662387  0.33760883     0.09700
S2672       S  0.97871480  0.36136072  0.33987370    -0.25000
H2673       H  0.97038811  0.35160040  0.36495163     0.19900
S2674       S  0.08312419  0.41348540  0.38346359    -0.30700
H2675       H  0.09169265  0.42108940  0.35795327     0.10300
C2676       C  0.07549369  0.44067468  0.33454500     0.03500
C2677       C  0.08956248  0.45042493  0.32312200    -0.13000
C2678       C  0.08564257  0.42692008  0.31441320    -0.08700
C2679       C  0.06750468  0.39270425  0.31744657     0.06900
C2680       C  0.05470038  0.38304292  0.32906053    -0.13800
S2681       S  0.07847086  0.47175871  0.34496651    -0.30700
H2682       H  0.10318692  0.47661283  0.32084254     0.11200
S2683       S  0.05781881  0.36007364  0.30678246    -0.27800
H2684       H  0.04111418  0.35682954  0.33135618     0.08400
H2685       H  0.11184404  0.42446351  0.37642076     0.26800
H2686       H  0.09639735  0.49954925  0.33748047     0.21600
H2687       H  0.05299449  0.37645931  0.29711121     0.26900
H2688       H  0.99659975  0.38943197  0.33251632     0.15800
C2689       C  0.28059556  0.13023671  0.37587722    -0.11500
C2690       C  0.25926685  0.13667328  0.38268804     0.15000
C2691       C  0.24800092  0.12113156  0.39388759     0.01900
C2692       C  0.26094940  0.10232823  0.39857923    -0.15900
C2693       C  0.28434606  0.09764102  0.39220053    -0.10700
C2694       C  0.29258097  0.11023701  0.38034937     0.08600
C2695       C  0.25080286  0.16127134  0.37826109     0.09700
S2696       S  0.21814759  0.12544207  0.40281665    -0.25000
H2697       H  0.25312637  0.09194923  0.40746177     0.19900
S2698       S  0.31855913  0.10257269  0.37050250    -0.30700
H2699       H  0.28843239  0.14139170  0.36709516     0.10300
C2700       C  0.26559901  0.19343450  0.38327085     0.03500
C2701       C  0.25602828  0.21570044  0.37915340    -0.13000
C2702       C  0.23257883  0.20662196  0.36995933    -0.08700
C2703       C  0.21848431  0.17482584  0.36471466     0.06900
C2704       C  0.22764063  0.15231157  0.36896588    -0.13800
S2705       S  0.29736278  0.20641492  0.39463723    -0.30700
H2706       H  0.26719730  0.24047647  0.38292764     0.11200
S2707       S  0.18867299  0.16291338  0.35271007    -0.27800
H2708       H  0.21669690  0.12763892  0.36513231     0.08400
H2709       H  0.30063909  0.06796206  0.37244536     0.26800
H2710       H  0.30515764  0.23973136  0.39534908     0.21600
H2711       H  0.18249761  0.13026660  0.35134079     0.26900
H2712       H  0.20124211  0.12951013  0.39315915     0.15800
C2713       C  0.16858138  0.31072513  0.38843915    -0.11500
C2714       C  0.13448075  0.28707782  0.38913934     0.15000
C2715       C  0.12225739  0.25612519  0.38332373     0.01900
C2716       C  0.14404022  0.24993520  0.37667226    -0.15900
C2717       C  0.17801666  0.27384238  0.37573488    -0.10700
C2718       C  0.19050167  0.30428234  0.38195297     0.08600
C2719       C  0.11166895  0.29695340  0.39456012     0.09700
S2720       S  0.07894654  0.22399134  0.38371272    -0.25000
H2721       H  0.13433711  0.22630489  0.37207128     0.19900
S2722       S  0.23403385  0.33577127  0.38197991    -0.30700
H2723       H  0.17810103  0.33458907  0.39284841     0.10300
C2724       C  0.10500395  0.29468656  0.40694543     0.03500
C2725       C  0.08306408  0.30455494  0.41145437    -0.13000
C2726       C  0.06741566  0.31635257  0.40377413    -0.08700
C2727       C  0.07307564  0.31693288  0.39128662     0.06900
C2728       C  0.09547683  0.30783739  0.38689331    -0.13800
S2729       S  0.12370473  0.27834308  0.41689684    -0.30700
H2730       H  0.07830420  0.30335560  0.42098113     0.11200
S2731       S  0.04950178  0.32582920  0.38065332    -0.27800
H2732       H  0.09983069  0.30831136  0.37734971     0.08400
H2733       H  0.24620200  0.31377750  0.38100613     0.26800
H2734       H  0.10612162  0.27769632  0.42722496     0.21600
H2735       H  0.06942989  0.33008568  0.37059164     0.26900
H2736       H  0.07166398  0.23251917  0.39490270     0.15800
C2737       C  0.41548261  0.54320515  0.26334452    -0.11500
C2738       C  0.43951254  0.55125132  0.27221901     0.15000
C2739       C  0.44485517  0.52610352  0.27680008     0.01900
C2740       C  0.42768940  0.49407434  0.27184943    -0.15900
C2741       C  0.40486080  0.48635775  0.26248818    -0.10700
C2742       C  0.39788169  0.51110001  0.25854847     0.08600
C2743       C  0.46012433  0.58644635  0.27596942     0.09700
S2744       S  0.47447831  0.53382774  0.28852051    -0.25000
H2745       H  0.43329344  0.47544012  0.27500130     0.19900
S2746       S  0.36659030  0.50323152  0.24752807    -0.30700
H2747       H  0.41081687  0.56231440  0.25997321     0.10300
C2748       C  0.49254223  0.60677664  0.27141873     0.03500
C2749       C  0.51226018  0.63929734  0.27578438    -0.13000
C2750       C  0.50012219  0.65181022  0.28459759    -0.08700
C2751       C  0.46715621  0.63199111  0.28875343     0.06900
C2752       C  0.44734977  0.59950676  0.28433118    -0.13800
S2753       S  0.50894457  0.59103213  0.26020334    -0.30700
H2754       H  0.53761232  0.65467103  0.27266236     0.11200
S2755       S  0.45049467  0.64803789  0.29975000    -0.27800
H2756       H  0.42221403  0.58386110  0.28760781     0.08400
H2757       H  0.34364406  0.47228525  0.25247776     0.26800
H2758       H  0.53912795  0.62096559  0.25834236     0.21600
H2759       H  0.41863869  0.61949729  0.30048414     0.26900
H2760       H  0.47146209  0.55892775  0.29430878     0.15800
C2761       C  0.49675283  0.46656190  0.20782854    -0.11500
C2762       C  0.52393151  0.48648006  0.21529327     0.15000
C2763       C  0.51873493  0.48681538  0.22769636     0.01900
C2764       C  0.48668889  0.46767140  0.23234624    -0.15900
C2765       C  0.45913391  0.44754805  0.22498396    -0.10700
C2766       C  0.46453240  0.44687472  0.21252171     0.08600
C2767       C  0.55733488  0.50751971  0.20997707     0.09700
S2768       S  0.55175052  0.51172818  0.23811055    -0.25000
H2769       H  0.48335676  0.46895132  0.24186782     0.19900
S2770       S  0.43193089  0.42118407  0.20215431    -0.30700
H2771       H  0.50073461  0.46623898  0.19830305     0.10300
C2772       C  0.57752791  0.49423127  0.20681390     0.03500
C2773       C  0.61011609  0.51563812  0.20273164    -0.13000
C2774       C  0.62275078  0.55000237  0.20174090    -0.08700
C2775       C  0.60236630  0.56318050  0.20488217     0.06900
C2776       C  0.56989485  0.54180823  0.20889744    -0.13800
S2777       S  0.56202012  0.45019346  0.20830676    -0.30700
H2778       H  0.62581320  0.50567336  0.20023995     0.11200
S2779       S  0.61638838  0.60702366  0.20409373    -0.27800
H2780       H  0.55446775  0.55204751  0.21145572     0.08400
H2781       H  0.41767728  0.39317449  0.20966846     0.26800
H2782       H  0.59117545  0.45103914  0.20447543     0.21600
H2783       H  0.65014795  0.61856435  0.20636693     0.26900
H2784       H  0.57747004  0.51115020  0.23176847     0.15800
C2785       C  0.16805083  0.39350803  0.27035535    -0.11500
C2786       C  0.19817728  0.41911670  0.26569645     0.15000
C2787       C  0.20519701  0.45234686  0.26660700     0.01900
C2788       C  0.18336828  0.45928454  0.27287753    -0.15900
C2789       C  0.15350978  0.43375598  0.27781341    -0.10700
C2790       C  0.14542163  0.40033705  0.27611931     0.08600
C2791       C  0.22206108  0.41055632  0.26021908     0.09700
S2792       S  0.24128348  0.48702368  0.25982103    -0.25000
H2793       H  0.18971595  0.48500792  0.27385062     0.19900
S2794       S  0.10605236  0.36517358  0.28050217    -0.30700
H2795       H  0.16198474  0.36786006  0.26941386     0.10300
C2796       C  0.25373978  0.42186423  0.26526975     0.03500
C2797       C  0.27639305  0.41532174  0.25939670    -0.13000
C2798       C  0.26798011  0.39685224  0.24872025    -0.08700
C2799       C  0.23562459  0.38391061  0.24401542     0.06900
C2800       C  0.21303578  0.39086836  0.24980686    -0.13800
S2801       S  0.26497971  0.44347607  0.27946174    -0.30700
H2802       H  0.30068586  0.42409181  0.26326602     0.11200
S2803       S  0.22206687  0.35939751  0.23052093    -0.27800
H2804       H  0.18855075  0.38158093  0.24601192     0.08400
H2805       H  0.08743073  0.38064307  0.27818292     0.26800
H2806       H  0.29714693  0.44804867  0.28021332     0.21600
H2807       H  0.25313443  0.37604922  0.22473351     0.26900
H2808       H  0.24446587  0.46884719  0.25039706     0.15800
C2809       C  0.27520596  0.30128398  0.29463336    -0.11500
C2810       C  0.29115704  0.32391864  0.30402959     0.15000
C2811       C  0.32100184  0.35412380  0.30157817     0.01900
C2812       C  0.33394813  0.36084796  0.28993687    -0.15900
C2813       C  0.31728247  0.33873206  0.28050510    -0.10700
C2814       C  0.28769648  0.30840758  0.28294558     0.08600
C2815       C  0.27713919  0.31431763  0.31634068     0.09700
S2816       S  0.34310041  0.38577036  0.31274330    -0.25000
H2817       H  0.35653734  0.38434927  0.28811325     0.19900
S2818       S  0.26524429  0.27735673  0.27162846    -0.30700
H2819       H  0.25287022  0.27757154  0.29645474     0.10300
C2820       C  0.24418640  0.30599821  0.31906886     0.03500
C2821       C  0.23132629  0.29448335  0.33059056    -0.13000
C2822       C  0.25093191  0.29190178  0.33957910    -0.08700
C2823       C  0.28469362  0.30267965  0.33702839     0.06900
C2824       C  0.29695673  0.31260916  0.32541978    -0.13800
S2825       S  0.21846278  0.31023318  0.30794666    -0.30700
H2826       H  0.20556785  0.28644916  0.33250373     0.11200
S2827       S  0.31374927  0.30513314  0.34821876    -0.27800
H2828       H  0.32238108  0.31928241  0.32345672     0.08400
H2829       H  0.29358734  0.28355653  0.26507134     0.26800
H2830       H  0.19095184  0.30156278  0.31541622     0.21600
H2831       H  0.29799590  0.31083693  0.35790678     0.26900
H2832       H  0.31477363  0.37911090  0.31940067     0.15800
C2833       C  0.20218429  0.78959852  0.03740493    -0.11500
C2834       C  0.19083833  0.80235701  0.04640137     0.15000
C2835       C  0.15879181  0.78203177  0.05132977     0.01900
C2836       C  0.13864882  0.74959711  0.04701781    -0.15900
C2837       C  0.14989282  0.73695595  0.03793593    -0.10700
C2838       C  0.18216668  0.75712651  0.03316396     0.08600
C2839       C  0.21271212  0.83715573  0.05027904     0.09700
S2840       S  0.14178059  0.79631539  0.06282741    -0.25000
H2841       H  0.11370176  0.73437321  0.05055202     0.19900
S2842       S  0.19890459  0.74314869  0.02146785    -0.30700
H2843       H  0.22675738  0.80517400  0.03361270     0.10300
C2844       C  0.23956739  0.84589746  0.05807757     0.03500
C2845       C  0.25838612  0.87876752  0.06218107    -0.13000
C2846       C  0.25101408  0.90327662  0.05860336    -0.08700
C2847       C  0.22535938  0.89467144  0.05007849     0.06900
C2848       C  0.20620553  0.86167473  0.04620293    -0.13800
S2849       S  0.24870263  0.81473686  0.06330633    -0.30700
H2850       H  0.27802981  0.88498202  0.06859189     0.11200
S2851       S  0.21596445  0.92435018  0.04358836    -0.27800
H2852       H  0.18605781  0.85500406  0.03994862     0.08400
H2853       H  0.18065393  0.70915570  0.02441928     0.26800
H2854       H  0.27561980  0.83581234  0.07072689     0.21600
H2855       H  0.24946199  0.94971988  0.04256393     0.26900
H2856       H  0.17219929  0.81901379  0.06822632     0.15800
C2857       C  0.09726258  0.89136630  0.12015579    -0.11500
C2858       C  0.10848056  0.88391884  0.10962440     0.15000
C2859       C  0.08646418  0.85495542  0.10311226     0.01900
C2860       C  0.05382159  0.83435927  0.10722530    -0.15900
C2861       C  0.04259035  0.84161077  0.11783090    -0.10700
C2862       C  0.06460651  0.87088883  0.12423880     0.08600
C2863       C  0.14268312  0.90761868  0.10535766     0.09700
S2864       S  0.09849156  0.84271190  0.08955294    -0.25000
H2865       H  0.03731934  0.81189646  0.10229251     0.19900
S2866       S  0.05233408  0.88426562  0.13743752    -0.30700
H2867       H  0.11389132  0.91380210  0.12508331     0.10300
C2868       C  0.14825494  0.92907018  0.09564625     0.03500
C2869       C  0.18067483  0.94923900  0.09125567    -0.13000
C2870       C  0.20792723  0.94877817  0.09644360    -0.08700
C2871       C  0.20248235  0.92914905  0.10679411     0.06900
C2872       C  0.16995636  0.90852971  0.11103744    -0.13800
S2873       S  0.11394482  0.93035387  0.08871477    -0.30700
H2874       H  0.18456057  0.96440463  0.08340796     0.11200
S2875       S  0.23592639  0.92992926  0.11513570    -0.27800
H2876       H  0.16581265  0.89284407  0.11876601     0.08400
H2877       H  0.01873974  0.87033675  0.13417365     0.26800
H2878       H  0.13313603  0.95681038  0.08082844     0.21600
H2879       H  0.25850548  0.96395368  0.11313078     0.26900
H2880       H  0.13260647  0.85791760  0.09214173     0.15800
C2881       C  0.43406021  0.99557356  0.05102451    -0.11500
C2882       C  0.43605272  0.96927569  0.05617313     0.15000
C2883       C  0.41736701  0.95388374  0.06656765     0.01900
C2884       C  0.39767204  0.96546661  0.07168943    -0.15900
C2885       C  0.39528406  0.99179127  0.06655422    -0.10700
C2886       C  0.41379672  0.00682803  0.05593065     0.08600
C2887       C  0.45870427  0.95931538  0.05065866     0.09700
S2888       S  0.41710049  0.91893855  0.07359851    -0.25000
H2889       H  0.38353091  0.95318197  0.07966721     0.19900
S2890       S  0.41282069  0.04057567  0.04833053    -0.30700
H2891       H  0.44876288  0.00752893  0.04311308     0.10300
C2892       C  0.45171927  0.94346212  0.03940653     0.03500
C2893       C  0.47438120  0.93552249  0.03432078    -0.13000
C2894       C  0.50392783  0.94303121  0.04026118    -0.08700
C2895       C  0.51098606  0.95915815  0.05149691     0.06900
C2896       C  0.48823227  0.96687567  0.05660252    -0.13800
S2897       S  0.41340258  0.93231223  0.03170652    -0.30700
H2898       H  0.46892828  0.92298256  0.02578108     0.11200
S2899       S  0.54888914  0.97136899  0.05961228    -0.27800
H2900       H  0.49382490  0.97938802  0.06515731     0.08400
H2901       H  0.42352502  0.03590226  0.03709986     0.26800
H2902       H  0.41969690  0.91895421  0.02142487     0.21600
H2903       H  0.56892734  0.97659590  0.04950254     0.26900
H2904       H  0.42223374  0.90562923  0.06307098     0.15800
C2905       C  0.35514326  0.03383606  0.02034499    -0.11500
C2906       C  0.36899742  0.06686036  0.01648653     0.15000
C2907       C  0.36631584  0.09000084  0.02386094     0.01900
C2908       C  0.35133976  0.08006700  0.03513337    -0.15900
C2909       C  0.33778510  0.04713252  0.03910359    -0.10700
C2910       C  0.33955042  0.02365924  0.03156510     0.08600
C2911       C  0.38710017  0.07675322  0.00492315     0.09700
S2912       S  0.38185607  0.13263752  0.01947409    -0.25000
H2913       H  0.35006379  0.09818869  0.04084074     0.19900
S2914       S  0.32455436  0.98144672  0.03651851    -0.30700
H2915       H  0.35738802  0.01628372  0.01464853     0.10300
C2916       C  0.42216651  0.09546270  0.00445418     0.03500
C2917       C  0.43819351  0.10627915  0.99332934    -0.13000
C2918       C  0.41980047  0.09866332  0.98268516    -0.08700
C2919       C  0.38475648  0.07862841  0.98316246     0.06900
C2920       C  0.36881484  0.06798052  0.99425354    -0.13800
S2921       S  0.44638115  0.10577009  0.01804082    -0.30700
H2922       H  0.46506905  0.12158302  0.99291677     0.11200
S2923       S  0.35904023  0.06639325  0.96994583    -0.27800
H2924       H  0.34186354  0.05324037  0.99459783     0.08400
H2925       H  0.33398691  0.97060279  0.02629913     0.26800
H2926       H  0.47771376  0.12549291  0.01265650     0.21600
H2927       H  0.38276524  0.06634404  0.96218903     0.26900
H2928       H  0.37776154  0.12681104  0.00708564     0.15800
C2929       C  0.54115581  0.14349083  0.20193606    -0.11500
C2930       C  0.53071391  0.11782017  0.21037113     0.15000
C2931       C  0.49827924  0.10321603  0.21522139     0.01900
C2932       C  0.47661485  0.11358240  0.21117348    -0.15900
C2933       C  0.48669896  0.13854522  0.20249711    -0.10700
C2934       C  0.51940303  0.15396134  0.19792559     0.08600
C2935       C  0.55393114  0.10649987  0.21392640     0.09700
S2936       S  0.48274698  0.07074746  0.22637909    -0.25000
H2937       H  0.45143308  0.10164955  0.21465089     0.19900
S2938       S  0.53336031  0.18693090  0.18700536    -0.30700
H2939       H  0.56617608  0.15484757  0.19836541     0.10300
C2940       C  0.54926864  0.07558434  0.21013045     0.03500
C2941       C  0.56897698  0.06376337  0.21507537    -0.13000
C2942       C  0.59324165  0.08228549  0.22374477    -0.08700
C2943       C  0.59980899  0.11460299  0.22664723     0.06900
C2944       C  0.57992521  0.12620726  0.22180572    -0.13800
S2945       S  0.51741037  0.05072053  0.19932914    -0.30700
H2946       H  0.56405718  0.03911511  0.21272781     0.11200
S2947       S  0.63314828  0.14213835  0.23645975    -0.27800
H2948       H  0.58412965  0.15042996  0.22446169     0.08400
H2949       H  0.56611473  0.19322539  0.18595375     0.26800
H2950       H  0.52363388  0.02421425  0.19888330     0.21600
H2951       H  0.65474417  0.13105263  0.23277300     0.26900
H2952       H  0.51350699  0.08063399  0.23184677     0.15800
C2953       C  0.42053339  0.11802377  0.14833598    -0.11500
C2954       C  0.38644017  0.09543326  0.14680466     0.15000
C2955       C  0.36448203  0.08964431  0.15644505     0.01900
C2956       C  0.37727872  0.10525082  0.16749356    -0.15900
C2957       C  0.41153546  0.12728281  0.16908152    -0.10700
C2958       C  0.43314038  0.13456180  0.15919582     0.08600
C2959       C  0.37509251  0.07769270  0.13516786     0.09700
S2960       S  0.32004160  0.06259058  0.15524485    -0.25000
H2961       H  0.36046524  0.09965896  0.17497037     0.19900
S2962       S  0.47696855  0.16506232  0.15975445    -0.30700
H2963       H  0.43750589  0.12288775  0.14096585     0.10300
C2964       C  0.37953287  0.09521798  0.12440169     0.03500
C2965       C  0.37101635  0.07794407  0.11351423    -0.13000
C2966       C  0.35687270  0.04321896  0.11309472    -0.08700
C2967       C  0.35174958  0.02551402  0.12389832     0.06900
C2968       C  0.36129975  0.04301503  0.13480026    -0.13800
S2969       S  0.39465280  0.13940626  0.12453507    -0.30700
H2970       H  0.37430055  0.09146861  0.10525843     0.11200
S2971       S  0.33473243  0.98102518  0.12385359    -0.27800
H2972       H  0.35838455  0.02977791  0.14309318     0.08400
H2973       H  0.47415156  0.18553615  0.16835367     0.26800
H2974       H  0.39233734  0.14312258  0.11214350     0.21600
H2975       H  0.33370437  0.97687367  0.13634368     0.26900
H2976       H  0.31796555  0.06790392  0.14296890     0.15800
C2977       C  0.41735131  0.28791995  0.22776759    -0.11500
C2978       C  0.39135228  0.25508734  0.22613030     0.15000
C2979       C  0.35962456  0.24564359  0.23080686     0.01900
C2980       C  0.35459579  0.26918678  0.23683845    -0.15900
C2981       C  0.38020452  0.30271762  0.23798665    -0.10700
C2982       C  0.41211606  0.31185893  0.23329700     0.08600
C2983       C  0.39818399  0.23190101  0.21916957     0.09700
S2984       S  0.32415056  0.20439149  0.22892421    -0.25000
H2985       H  0.32997195  0.26140775  0.24021125     0.19900
S2986       S  0.44704020  0.35379874  0.23328080    -0.30700
H2987       H  0.44174070  0.29532056  0.22422843     0.10300
C2988       C  0.40683881  0.23752870  0.20693272     0.03500
C2989       C  0.41505465  0.21638839  0.20079508    -0.13000
C2990       C  0.41404765  0.18902058  0.20648519    -0.08700
C2991       C  0.40359371  0.18239546  0.21859199     0.06900
C2992       C  0.39651014  0.20422397  0.22483742    -0.13800
S2993       S  0.40677231  0.27129002  0.19901430    -0.30700
H2994       H  0.42283231  0.22150347  0.19152798     0.11200
S2995       S  0.39748469  0.14592296  0.22645045    -0.27800
H2996       H  0.38926590  0.19940438  0.23417296     0.08400
H2997       H  0.43007088  0.36602521  0.22653831     0.26800
H2998       H  0.41364196  0.26357524  0.18758807     0.21600
H2999       H  0.38819578  0.12526124  0.21630281     0.26900
H3000       H  0.33344431  0.19845843  0.21763576     0.15800
C3001       C  0.09177276  0.26808008  0.09397344    -0.11500
C3002       C  0.10745675  0.28069912  0.10498881     0.15000
C3003       C  0.10305152  0.30488308  0.11095130     0.01900
C3004       C  0.08496948  0.31753271  0.10538616    -0.15900
C3005       C  0.07038933  0.30589534  0.09411594    -0.10700
C3006       C  0.07332693  0.28033947  0.08847302     0.08600
C3007       C  0.13169000  0.27145151  0.10915749     0.09700
S3008       S  0.12029652  0.32087360  0.12554336    -0.25000
H3009       H  0.08244526  0.33679400  0.10984773     0.19900
S3010       S  0.05679428  0.26430610  0.07382327    -0.30700
H3011       H  0.09547251  0.24981042  0.08931138     0.10300
C3012       C  0.12197621  0.23843903  0.11223954     0.03500
C3013       C  0.14628744  0.23091815  0.11569435    -0.13000
C3014       C  0.17998643  0.25573067  0.11604181    -0.08700
C3015       C  0.18971764  0.28854796  0.11260151     0.06900
C3016       C  0.16546557  0.29607599  0.10928805    -0.13800
S3017       S  0.07860224  0.20629820  0.11231399    -0.30700
H3018       H  0.13900549  0.20583731  0.11851301     0.11200
S3019       S  0.23261231  0.32172089  0.11216029    -0.27800
H3020       H  0.17301016  0.32135899  0.10660967     0.08400
H3021       H  0.06827884  0.29582700  0.06869711     0.26800
H3022       H  0.08373065  0.17946521  0.11435921     0.21600
H3023       H  0.24604093  0.30135313  0.10962345     0.26900
H3024       H  0.12057481  0.29234125  0.12943878     0.15800
C3025       C  0.27674406  0.11093467  0.10355589    -0.11500
C3026       C  0.27055075  0.13164631  0.09629613     0.15000
C3027       C  0.27429071  0.13116194  0.08377050     0.01900
C3028       C  0.28424003  0.10999359  0.07878679    -0.15900
C3029       C  0.29054141  0.08927255  0.08605677    -0.10700
C3030       C  0.28630095  0.08953917  0.09860039     0.08600
C3031       C  0.26074208  0.15376868  0.10214808     0.09700
S3032       S  0.26734424  0.15727976  0.07371035    -0.25000
H3033       H  0.28737442  0.10990021  0.06918965     0.19900
S3034       S  0.29130471  0.06243316  0.10880812    -0.30700
H3035       H  0.27368743  0.11117333  0.11315895     0.10300
C3036       C  0.22777736  0.14174971  0.10597527     0.03500
C3037       C  0.21972087  0.16341021  0.11178026    -0.13000
C3038       C  0.24403956  0.19678250  0.11382580    -0.08700
C3039       C  0.27686498  0.20888576  0.10971070     0.06900
C3040       C  0.28494317  0.18715811  0.10405971    -0.13800
S3041       S  0.19604622  0.09894869  0.10333997    -0.30700
H3042       H  0.19449560  0.15432263  0.11487745     0.11200
S3043       S  0.30924653  0.25189055  0.11113432    -0.27800
H3044       H  0.31025688  0.19639482  0.10101323     0.08400
H3045       H  0.27995997  0.03540911  0.10091988     0.26800
H3046       H  0.16945009  0.10097015  0.10835041     0.21600
H3047       H  0.28824089  0.26516712  0.10990066     0.26900
H3048       H  0.24353464  0.15946242  0.08073574     0.15800
C3049       C  0.24989549  0.28273645  0.16961422    -0.11500
C3050       C  0.28453258  0.30271870  0.17059491     0.15000
C3051       C  0.30489516  0.30426695  0.16096026     0.01900
C3052       C  0.29008806  0.28654706  0.15045130    -0.15900
C3053       C  0.25533775  0.26752402  0.14931653    -0.10700
C3054       C  0.23510638  0.26493436  0.15917206     0.08600
C3055       C  0.29831115  0.32001530  0.18206843     0.09700
S3056       S  0.34970089  0.32902523  0.16138346    -0.25000
H3057       H  0.30574623  0.28866789  0.14293446     0.19900
S3058       S  0.19035851  0.23885285  0.15912772    -0.30700
H3059       H  0.23426640  0.28072731  0.17712692     0.10300
C3060       C  0.29302955  0.34566604  0.18603940     0.03500
C3061       C  0.30336326  0.35885967  0.19755871    -0.13000
C3062       C  0.31903529  0.34699256  0.20516182    -0.08700
C3063       C  0.32624713  0.32279072  0.20077038     0.06900
C3064       C  0.31521410  0.30917000  0.18940839    -0.13800
S3065       S  0.27316612  0.36157725  0.17641741    -0.30700
H3066       H  0.29831859  0.37775715  0.20078104     0.11200
S3067       S  0.34994341  0.30853593  0.20898819    -0.27800
H3068       H  0.31970061  0.28979493  0.18626293     0.08400
H3069       H  0.18921228  0.21484767  0.15120486     0.26800
H3070       H  0.27225053  0.38368679  0.18476440     0.21600
H3071       H  0.37125631  0.33926546  0.21448783     0.26900
H3072       H  0.35159879  0.35361327  0.16917056     0.15800
C3073       C  0.13537564  0.92095424  0.61524483    -0.11500
C3074       C  0.14353552  0.90869526  0.60515156     0.15000
C3075       C  0.17361297  0.92955394  0.59900077     0.01900
C3076       C  0.19550180  0.96151815  0.60343351    -0.15900
C3077       C  0.18786949  0.97336001  0.61378359    -0.10700
C3078       C  0.15697223  0.95308049  0.61954484     0.08600
C3079       C  0.12051980  0.87381769  0.60148834     0.09700
S3080       S  0.18611797  0.91664334  0.58571862    -0.25000
H3081       H  0.21905676  0.97699918  0.59894101     0.19900
S3082       S  0.14365638  0.96675202  0.63239940    -0.30700
H3083       H  0.11208582  0.90522927  0.61986563     0.10300
C3084       C  0.12662943  0.84803963  0.60450427     0.03500
C3085       C  0.10472993  0.81550423  0.60048031    -0.13000
C3086       C  0.07684677  0.80827965  0.59349030    -0.08700
C3087       C  0.06999783  0.83395904  0.59103288     0.06900
C3088       C  0.09190757  0.86637435  0.59498933    -0.13800
S3089       S  0.16266852  0.85678656  0.61328187    -0.30700
H3090       H  0.11014281  0.79590864  0.60232291     0.11200
S3091       S  0.03328827  0.82662684  0.58312870    -0.27800
H3092       H  0.08675424  0.88606522  0.59291645     0.08400
H3093       H  0.16067536  0.00069062  0.62932026     0.26800
H3094       H  0.15581690  0.82378095  0.61402572     0.21600
H3095       H  0.01299710  0.79506662  0.58826629     0.26900
H3096       H  0.15418496  0.89229681  0.58192265     0.15800
C3097       C  0.17432442  0.77294202  0.55520949    -0.11500
C3098       C  0.18003571  0.79643636  0.54634379     0.15000
C3099       C  0.15299558  0.79832223  0.54160164     0.01900
C3100       C  0.12124877  0.77838108  0.54648887    -0.15900
C3101       C  0.11584905  0.75648213  0.55599087    -0.10700
C3102       C  0.14254222  0.75263942  0.55995370     0.08600
C3103       C  0.21479078  0.82056656  0.54311415     0.09700
S3104       S  0.15761303  0.82731778  0.53000660    -0.25000
H3105       H  0.10099559  0.78143105  0.54328292     0.19900
S3106       S  0.13774966  0.72242815  0.57102762    -0.30700
H3107       H  0.19503247  0.77103043  0.55868378     0.10300
C3108       C  0.23274922  0.85102624  0.54927003     0.03500
C3109       C  0.26585150  0.87329856  0.54606734    -0.13000
C3110       C  0.28113884  0.86576673  0.53676650    -0.08700
C3111       C  0.26317172  0.83495225  0.53072994     0.06900
C3112       C  0.23023421  0.81263137  0.53401313    -0.13800
S3113       S  0.21323222  0.86167634  0.56105673    -0.30700
H3114       H  0.27966319  0.89712656  0.55056741     0.11200
S3115       S  0.28066261  0.82276307  0.51873407    -0.27800
H3116       H  0.21637306  0.78899039  0.52937207     0.08400
H3117       H  0.10635985  0.69784260  0.56681014     0.26800
H3118       H  0.24106487  0.89276727  0.56390500     0.21600
H3119       H  0.31398469  0.84174264  0.52244891     0.26900
H3120       H  0.18728551  0.83187919  0.52503686     0.15800
C3121       C  0.87815202  0.70983957  0.58968551    -0.11500
C3122       C  0.88790010  0.74348912  0.59103208     0.15000
C3123       C  0.91834350  0.76796182  0.58601667     0.01900
C3124       C  0.93881017  0.75843349  0.58024103    -0.15900
C3125       C  0.93001904  0.72482871  0.57925893    -0.10700
C3126       C  0.89847690  0.70019399  0.58375297     0.08600
C3127       C  0.86650386  0.75255137  0.59800901     0.09700
S3128       S  0.93297162  0.81190350  0.58694609    -0.25000
H3129       H  0.96225881  0.77782129  0.57658676     0.19900
S3130       S  0.88291737  0.65619540  0.58265597    -0.30700
H3131       H  0.85455886  0.69087145  0.59342612     0.10300
C3132       C  0.83635902  0.74788904  0.59334306     0.03500
C3133       C  0.81769650  0.75826036  0.60002465    -0.13000
C3134       C  0.82854023  0.77329322  0.61129808    -0.08700
C3135       C  0.85899317  0.77821824  0.61588848     0.06900
C3136       C  0.87734062  0.76745693  0.60927948    -0.13800
S3137       S  0.82218424  0.72963067  0.57872137    -0.30700
H3138       H  0.79439718  0.75450685  0.59649964     0.11200
S3139       S  0.87648387  0.79923420  0.62986237    -0.27800
H3140       H  0.90074318  0.77143605  0.61282465     0.08400
H3141       H  0.88666589  0.65714419  0.57013747     0.26800
H3142       H  0.79282540  0.73114724  0.57860599     0.21600
H3143       H  0.86388295  0.82092102  0.62915471     0.26900
H3144       H  0.90138391  0.80880832  0.58679456     0.15800
C3145       C  0.97593971  0.65490974  0.63449967    -0.11500
C3146       C  0.94479160  0.65179627  0.63640269     0.15000
C3147       C  0.92883674  0.65776064  0.62684023     0.01900
C3148       C  0.94354534  0.66504430  0.61548727    -0.15900
C3149       C  0.97450048  0.66738742  0.61336900    -0.10700
C3150       C  0.99114556  0.66299392  0.62321004     0.08600
C3151       C  0.92850858  0.63956037  0.64818101     0.09700
S3152       S  0.88927873  0.65556455  0.62846612    -0.25000
H3153       H  0.93047779  0.66894545  0.60822961     0.19900
S3154       S  0.03103268  0.66591911  0.62201648    -0.30700
H3155       H  0.98827863  0.65039678  0.64186524     0.10300
C3156       C  0.90491006  0.60565352  0.64994858     0.03500
C3157       C  0.89155888  0.59442539  0.66139644    -0.13000
C3158       C  0.90145664  0.61636833  0.67117206    -0.08700
C3159       C  0.92503117  0.65045548  0.66933685     0.06900
C3160       C  0.93809126  0.66167790  0.65786104    -0.13800
S3161       S  0.89265193  0.57650606  0.63768196    -0.30700
H3162       H  0.87359542  0.56832030  0.66281198     0.11200
S3163       S  0.94076342  0.68052597  0.68131753    -0.27800
H3164       H  0.95649838  0.68770594  0.65650956     0.08400
H3165       H  0.04720673  0.69945317  0.61838237     0.26800
H3166       H  0.87042060  0.54794746  0.64420839     0.21600
H3167       H  0.94035126  0.65864550  0.69006444     0.26900
H3168       H  0.89306132  0.66471694  0.64059711     0.15800
C3169       C  0.83409615  0.61243898  0.42902539    -0.11500
C3170       C  0.80637096  0.60705682  0.43576928     0.15000
C3171       C  0.79969166  0.59018567  0.44681535     0.01900
C3172       C  0.82109283  0.57966593  0.45096603    -0.15900
C3173       C  0.84971411  0.58640443  0.44452392    -0.10700
C3174       C  0.85616066  0.60286590  0.43337404     0.08600
C3175       C  0.78559931  0.62040921  0.43131917     0.09700
S3176       S  0.76500359  0.58228540  0.45624278    -0.25000
H3177       H  0.81598632  0.56704724  0.45950067     0.19900
S3178       S  0.89283743  0.61405187  0.42459933    -0.30700
H3179       H  0.83925008  0.62535234  0.42055250     0.10300
C3180       C  0.79783473  0.65488841  0.43110088     0.03500
C3181       C  0.77705612  0.66658193  0.42725848    -0.13000
C3182       C  0.74399859  0.64464179  0.42362951    -0.08700
C3183       C  0.73173212  0.60987049  0.42410349     0.06900
C3184       C  0.75276926  0.59829864  0.42778381    -0.13800
S3185       S  0.83978737  0.68411146  0.43592325    -0.30700
H3186       H  0.78699781  0.69316555  0.42691565     0.11200
S3187       S  0.68961055  0.57870136  0.42041437    -0.27800
H3188       H  0.74331601  0.57177560  0.42811109     0.08400
H3189       H  0.91427925  0.62103228  0.43440214     0.26800
H3190       H  0.83825708  0.71323271  0.43435476     0.21600
H3191       H  0.67556462  0.59346928  0.42741246     0.26900
H3192       H  0.76509225  0.61168743  0.45338918     0.15800
C3193       C  0.96525500  0.63041353  0.49331223    -0.11500
C3194       C  0.94210001  0.62450486  0.50238664     0.15000
C3195       C  0.90776151  0.60531442  0.49983544     0.01900
C3196       C  0.89740061  0.59156403  0.48844185    -0.15900
C3197       C  0.92048311  0.59735922  0.47933725    -0.10700
C3198       C  0.95485474  0.61749993  0.48178218     0.08600
C3199       C  0.95435749  0.63848636  0.51444019     0.09700
S3200       S  0.87595983  0.59767432  0.51068092    -0.25000
H3201       H  0.87094240  0.57647726  0.48659459     0.19900
S3202       S  0.98652282  0.62867951  0.47052115    -0.30700
H3203       H  0.99168214  0.64558416  0.49520640     0.10300
C3204       C  0.95206152  0.61807276  0.52408890     0.03500
C3205       C  0.96195244  0.63199817  0.53552961    -0.13000
C3206       C  0.97463579  0.66621558  0.53759073    -0.08700
C3207       C  0.97847680  0.68684440  0.52763668     0.06900
C3208       C  0.96788556  0.67266258  0.51627700    -0.13800
S3209       S  0.93675281  0.57427487  0.52180023    -0.30700
H3210       H  0.95946457  0.61592977  0.54291341     0.11200
S3211       S  0.99715464  0.73136225  0.52858747    -0.27800
H3212       H  0.97016306  0.68840264  0.50877885     0.08400
H3213       H  0.96757720  0.62982818  0.46094905     0.26800
H3214       H  0.93882505  0.56638597  0.53379348     0.21600
H3215       H  0.02557127  0.73577162  0.53464449     0.26900
H3216       H  0.89434939  0.62783738  0.51691452     0.15800
C3217       C  0.91543332  0.47466939  0.44424177    -0.11500
C3218       C  0.93574244  0.48601559  0.43402701     0.15000
C3219       C  0.94402194  0.51711857  0.42903306     0.01900
C3220       C  0.93196947  0.53612430  0.43434492    -0.15900
C3221       C  0.91235875  0.52515334  0.44472159    -0.10700
C3222       C  0.90358023  0.49379819  0.44960646     0.08600
C3223       C  0.94724074  0.46456295  0.42860992     0.09700
S3224       S  0.97060629  0.53432682  0.41611800    -0.25000
H3225       H  0.93884744  0.56022029  0.43058252     0.19900
S3226       S  0.87691282  0.47660816  0.46250721    -0.30700
H3227       H  0.90857131  0.45057704  0.44800150     0.10300
C3228       C  0.97049153  0.45866728  0.43444768     0.03500
C3229       C  0.98065173  0.43821423  0.42899856    -0.13000
C3230       C  0.96848466  0.42359118  0.41771027    -0.08700
C3231       C  0.94576001  0.43049277  0.41175428     0.06900
C3232       C  0.93508152  0.45033130  0.41735295    -0.13800
S3233       S  0.98765590  0.47756070  0.44878116    -0.30700
H3234       H  0.99782142  0.43311249  0.43374362     0.11200
S3235       S  0.92985647  0.41569673  0.39694954    -0.27800
H3236       H  0.91742146  0.45517953  0.41280479     0.08400
H3237       H  0.85816655  0.49204963  0.46041473     0.26800
H3238       H  0.00959990  0.46537280  0.45000541     0.21600
H3239       H  0.96128082  0.42482821  0.39215527     0.26900
H3240       H  0.99074813  0.52064465  0.41862461     0.15800
C3241       C  0.19915289  0.45730071  0.53994200    -0.11500
C3242       C  0.19209042  0.43760486  0.55020937     0.15000
C3243       C  0.16292732  0.42878943  0.55684212     0.01900
C3244       C  0.14044938  0.43796996  0.55261017    -0.15900
C3245       C  0.14670122  0.45622898  0.54198781    -0.10700
C3246       C  0.17697962  0.46694371  0.53582426     0.08600
C3247       C  0.21455132  0.42502181  0.55335264     0.09700
S3248       S  0.15231639  0.40471929  0.57046335    -0.25000
H3249       H  0.11739427  0.42987346  0.55741818     0.19900
S3250       S  0.18847155  0.49244545  0.52254753    -0.30700
H3251       H  0.22177676  0.46457601  0.53494789     0.10300
C3252       C  0.20542026  0.39166625  0.55116677     0.03500
C3253       C  0.22651250  0.38015078  0.55492045    -0.13000
C3254       C  0.25652687  0.40134008  0.56083376    -0.08700
C3255       C  0.26649727  0.43525760  0.56230751     0.06900
C3256       C  0.24539159  0.44670049  0.55861230    -0.13800
S3257       S  0.16660141  0.36366036  0.54379574    -0.30700
H3258       H  0.21884368  0.35414112  0.55378167     0.11200
S3259       S  0.30599193  0.46508294  0.56869976    -0.27800
H3260       H  0.25282650  0.47259842  0.55999915     0.08400
H3261       H  0.17092195  0.50868225  0.52546252     0.26800
H3262       H  0.16972539  0.33522483  0.54427913     0.21600
H3263       H  0.32294546  0.44975438  0.56405007     0.26900
H3264       H  0.18503111  0.41461209  0.57389432     0.15800
C3265       C  0.06478659  0.59098558  0.57087821    -0.11500
C3266       C  0.04654626  0.57216301  0.56091673     0.15000
C3267       C  0.01904413  0.57467097  0.55700523     0.01900
C3268       C  0.01082471  0.59602029  0.56296793    -0.15900
C3269       C  0.03015159  0.61610569  0.57252440    -0.10700
C3270       C  0.05713086  0.61301433  0.57662437     0.08600
C3271       C  0.05656178  0.54994496  0.55493717     0.09700
S3272       S  0.99461044  0.55291042  0.54404508    -0.25000
H3273       H  0.99043749  0.59852402  0.55962035     0.19900
S3274       S  0.08254004  0.63620461  0.58920430    -0.30700
H3275       H  0.08537265  0.58868799  0.57414665     0.10300
C3276       C  0.08847114  0.56266137  0.54980001     0.03500
C3277       C  0.09691855  0.54082902  0.54433293    -0.13000
C3278       C  0.07418216  0.50652628  0.54376495    -0.08700
C3279       C  0.04237839  0.49371366  0.54898044     0.06900
C3280       C  0.03395943  0.51549226  0.55448753    -0.13800
S3281       S  0.11803661  0.60685759  0.54961126    -0.30700
H3282       H  0.12120841  0.55056096  0.54023980     0.11200
S3283       S  0.01156748  0.44993192  0.54900088    -0.27800
H3284       H  0.00957113  0.50545720  0.55854318     0.08400
H3285       H  0.05710262  0.63787843  0.59536087     0.26800
H3286       H  0.14561519  0.60460170  0.54584621     0.21600
H3287       H  0.03398657  0.43818808  0.54881739     0.26900
H3288       H  0.02094860  0.55396800  0.53753953     0.15800
C3289       C  0.02734100  0.40719621  0.49313293    -0.11500
C3290       C  0.05141785  0.41085106  0.48472425     0.15000
C3291       C  0.08532503  0.42873655  0.48804273     0.01900
C3292       C  0.09432906  0.44273677  0.49946485    -0.15900
C3293       C  0.07031778  0.43812055  0.50807252    -0.10700
C3294       C  0.03627315  0.41976123  0.50481693     0.08600
C3295       C  0.04086400  0.39650658  0.47249778     0.09700
S3296       S  0.11839376  0.43376573  0.47827201    -0.25000
H3297       H  0.12050120  0.45680320  0.50175064     0.19900
S3298       S  0.00294141  0.40980407  0.51522613    -0.30700
H3299       H  0.00128412  0.39364016  0.49066518     0.10300
C3300       C  0.02080750  0.36192246  0.47055422     0.03500
C3301       C  0.01302284  0.34962233  0.45879163    -0.13000
C3302       C  0.02552060  0.37098510  0.44883463    -0.08700
C3303       C  0.04556467  0.40573612  0.45083825     0.06900
C3304       C  0.05248315  0.41796722  0.46260582    -0.13800
S3305       S  0.00630944  0.33319398  0.48299719    -0.30700
H3306       H  0.99767804  0.32310025  0.45733367     0.11200
S3307       S  0.06179706  0.43516708  0.43860730    -0.27800
H3308       H  0.06746180  0.44449478  0.46417470     0.08400
H3309       H  0.01903680  0.40579598  0.52517381     0.26800
H3310       H  0.99019955  0.30375403  0.47620586     0.21600
H3311       H  0.08160559  0.46382421  0.44549008     0.26900
H3312       H  0.10000310  0.40252061  0.47270160     0.15800
loop_ 
_geom_bond_atom_site_label_1 
_geom_bond_atom_site_label_2 
_geom_bond_distance 
_geom_bond_site_symmetry_2 
_ccdc_geom_bond_type 
C1            C2   1.409       .  A
C1            C6   1.405       .  A
C1         C3278   1.482       .  S
C2            C3   1.410       .  A
C2            H7   1.082       .  S
C3            C4   1.405       .  A
C3         C3293   1.493       .  S
C4            C5   1.400       .  A
C4            H8   1.085       .  S
C5            C6   1.401       .  A
C5         C3245   1.480       .  S
C6            H9   1.084       .  S
C10          C11   1.405       .  A
C10          C15   1.405       .  A
C10        C3221   1.478       .  S
C11          C12   1.403       .  A
C11          H16   1.085       .  S
C12          C13   1.399       .  A
C12        C3197   1.480       .  S
C13          C14   1.401       .  A
C13          H17   1.085       .  S
C14          C15   1.404       .  A
C14        C3173   1.479       .  S
C15          H18   1.082       .  S
O19         Cr37   1.974       .  S
O19          C27   1.258       .  A
O20         Cr37   2.012       .  S
O20          C21   1.266   1_655  A
C21        C3269   1.483       .  S
C21          O22   1.258       .  A
O22         Cr38   1.973       .  S
O23         Cr38   2.002       .  S
O23          C24   1.267       .  A
C24        C3101   1.479       .  S
C24          O25   1.264       .  A
O25         Cr39   1.981       .  S
O26         Cr39   2.012   1_655  S
O26          C27   1.263       .  A
C27        C3206   1.494       .  S
O28         Cr37   2.018       .  S
O28          C36   1.267       .  A
O29         Cr37   1.970       .  S
O29          C30   1.259       .  A
C30        C3149   1.495       .  S
C30          O31   1.266   1_655  A
O31         Cr38   2.014       .  S
O32         Cr38   1.986       .  S
O32          C33   1.262       .  A
C33        C3086   1.480       .  S
C33          O34   1.265       .  A
O34         Cr39   2.004       .  S
O35         Cr39   1.972   1_655  S
O35          C36   1.261       .  A
C36        C3125   1.497       .  S
Cr37         O40   1.772   1_655  S
Cr38         O40   1.773       .  S
Cr39         O40   1.771       .  S
C41          C42   1.403       .  A
C41          C46   1.406       .  A
C41        C3038   1.476       .  S
C42          C43   1.400       .  A
C42          H47   1.083       .  S
C43          C44   1.397       .  A
C43        C3014   1.470       .  S
C44          C45   1.399       .  A
C44          H48   1.085       .  S
C45          C46   1.403       .  A
C45        C3053   1.478       .  S
C46          H49   1.084       .  S
C50          C51   1.411       .  A
C50          C55   1.409       .  A
C50        C2990   1.493       .  S
C51          C52   1.407       .  A
C51          H56   1.084       .  S
C52          C53   1.401       .  A
C52        C2957   1.486       .  S
C53          C54   1.398       .  A
C53          H57   1.084       .  S
C54          C55   1.403       .  A
C54        C2933   1.477       .  S
C55          H58   1.084       .  S
O59         Cr77   1.970       .  S
O59          C67   1.259       .  A
O60         Cr77   2.009       .  S
O60          C61   1.264       .  A
C61        C2909   1.482       .  S
C61          O62   1.258       .  A
O62         Cr78   1.982       .  S
O63         Cr78   2.004   1_565  S
O63          C64   1.264       .  A
C64        C2846   1.487       .  S
C64          O65   1.261       .  A
O65         Cr79   1.978       .  S
O66         Cr79   2.025       .  S
O66          C67   1.273   1_565  A
C67        C2885   1.499   1_545  S
O68         Cr77   2.001       .  S
O68          C76   1.263       .  A
O69         Cr77   1.971       .  S
O69          C70   1.259       .  A
C70        C3029   1.475       .  S
C70          O71   1.269       .  A
O71         Cr78   2.018       .  S
O72         Cr78   1.973   1_565  S
O72          C73   1.262       .  A
C73        C2870   1.487       .  S
C73          O74   1.270       .  A
O74         Cr79   2.020       .  S
O75         Cr79   1.987       .  S
O75          C76   1.260   1_565  A
C76        C2966   1.484       .  S
Cr77         O80   1.770       .  S
Cr78         O80   1.767       .  S
Cr79         O80   1.765   1_565  S
O81         Cr99   1.968       .  S
O81          C89   1.256       .  A
O82         Cr99   2.022       .  S
O82          C83   1.269       .  A
C83        C2798   1.483       .  S
C83          O84   1.258       .  A
O84        Cr100   1.967       .  S
O85        Cr100   1.998       .  S
O85          C86   1.264       .  A
C86        C2741   1.484       .  S
C86          O87   1.265       .  A
O87        Cr101   1.994       .  S
O88        Cr101   2.010       .  S
O88          C89   1.265       .  A
C89        C2813   1.477       .  S
O90         Cr99   2.015       .  S
O90          C98   1.269       .  A
O91         Cr99   1.963       .  S
O91          C92   1.254       .  A
C92        C3062   1.480       .  S
C92          O93   1.264       .  A
O93        Cr100   2.008       .  S
O94        Cr100   1.990       .  S
O94          C95   1.264       .  A
C95        C2765   1.490       .  S
C95          O96   1.267       .  A
O96        Cr101   2.000       .  S
O97        Cr101   1.979       .  S
O97          C98   1.260       .  A
C98        C2981   1.502       .  S
Cr99        O102   1.778       .  S
Cr100       O102   1.775       .  S
Cr101       O102   1.770       .  S
C103        C104   1.412       .  A
C103        C108   1.402       .  A
C103       C2717   1.485       .  S
C104        C105   1.412       .  A
C104        H109   1.082       .  S
C105        C106   1.403       .  A
C105       C2822   1.490       .  S
C106        C107   1.396       .  A
C106        H110   1.084       .  S
C107        C108   1.399       .  A
C107       C2702   1.472       .  S
C108        H111   1.084       .  S
C112        C113   1.410       .  A
C112        C117   1.413       .  A
C112       C2789   1.496       .  S
C113        C114   1.403       .  A
C113        H118   1.082       .  S
C114        C115   1.398       .  A
C114       C2645   1.483       .  S
C115        C116   1.402       .  A
C115        H119   1.086       .  S
C116        C117   1.410       .  A
C116       C2678   1.491       .  S
C117        H120   1.084       .  S
O121       Cr139   1.972       .  S
O121        C129   1.262   1_455  A
O122       Cr139   2.008       .  S
O122        C123   1.264       .  A
C123       C3302   1.492       .  S
C123        O124   1.260   1_455  A
O124       Cr140   1.986       .  S
O125       Cr140   2.014       .  S
O125        C126   1.269       .  A
C126       C2621   1.497       .  S
C126        O127   1.258       .  A
O127       Cr141   1.973       .  S
O128       Cr141   2.013       .  S
O128        C129   1.268       .  A
C129       C3230   1.493       .  S
O130       Cr139   2.005       .  S
O130        C138   1.262       .  A
O131       Cr139   1.974       .  S
O131        C132   1.261       .  A
C132       C2726   1.491       .  S
C132        O133   1.272       .  A
O133       Cr140   2.028   1_455  S
O134       Cr140   1.973       .  S
O134        C135   1.259       .  A
C135       C2597   1.486       .  S
C135        O136   1.266       .  A
O136       Cr141   1.999       .  S
O137       Cr141   1.984       .  S
O137        C138   1.259   1_655  A
C138       C2669   1.488       .  S
Cr139       O142   1.770   1_455  S
Cr140       O142   1.771       .  S
Cr141       O142   1.769       .  S
C143        C144   1.408       .  A
C143        C148   1.408       .  A
C143       C2894   1.484       .  S
C144        C145   1.403       .  A
C144        H149   1.083       .  S
C145        C146   1.396       .  A
C145       C2549   1.475       .  S
C146        C147   1.401       .  A
C146        H150   1.085       .  S
C147        C148   1.407       .  A
C147       C2573   1.488       .  S
C148        H151   1.082       .  S
C152        C153   1.407       .  A
C152        C157   1.404       .  A
C152       C2525   1.482       .  S
C153        C154   1.405       .  A
C153        H158   1.084       .  S
C154        C155   1.402       .  A
C154       C2918   1.480       .  S
C155        C156   1.402       .  A
C155        H159   1.084       .  S
C156        C157   1.401       .  A
C156       C2510   1.479       .  S
C157        H160   1.085       .  S
O161       Cr179   2.009       .  S
O161        C169   1.265       .  A
O162       Cr179   1.971   1_565  S
O162        C163   1.258       .  A
C163       C2462   1.490       .  S
C163        O164   1.269       .  A
O164       Cr180   2.017   1_565  S
O165       Cr180   1.978       .  S
O165        C166   1.262       .  A
C166       C2405   1.488       .  S
C166        O167   1.268       .  A
O167       Cr181   2.016       .  S
O168       Cr181   1.971       .  S
O168        C169   1.258       .  A
C169       C2477   1.491       .  S
O170       Cr179   1.967       .  S
O170        C178   1.258       .  A
O171       Cr179   2.005   1_565  S
O171        C172   1.267   1_565  A
C172       C2582   1.494   1_545  S
C172        O173   1.259       .  A
O173       Cr180   1.982       .  S
O174       Cr180   2.008       .  S
O174        C175   1.267       .  A
C175       C2438   1.476       .  S
C175        O176   1.257       .  A
O176       Cr181   1.971       .  S
O177       Cr181   2.021       .  S
O177        C178   1.270       .  A
C178       C2534   1.494       .  S
Cr179       O182   1.770       .  S
Cr180       O182   1.768       .  S
Cr181       O182   1.770       .  S
C183        C184   1.407       .  A
C183        C188   1.408       .  A
C183       C2390   1.486       .  S
C184        C185   1.405       .  A
C184        H189   1.085       .  S
C185        C186   1.403       .  A
C185       C3158   1.484       .  S
C186        C187   1.402       .  A
C186        H190   1.083       .  S
C187        C188   1.405       .  A
C187       C2357   1.484       .  S
C188        H191   1.084       .  S
C192        C193   1.409       .  A
C192        C197   1.407       .  A
C192       C3134   1.487       .  S
C193        C194   1.409       .  A
C193        H198   1.084       .  S
C194        C195   1.403       .  A
C194       C2318   1.493       .  S
C195        C196   1.398       .  A
C195        H199   1.085       .  S
C196        C197   1.402       .  A
C196       C2333   1.476       .  S
C197        H200   1.086       .  S
C201        C202   1.412       .  A
C201        C206   1.410       .  A
C201       C2294   1.493       .  S
C202        C203   1.409       .  A
C202        H207   1.085       .  S
C203        C204   1.402       .  A
C203       C2486   1.487       .  S
C204        C205   1.398       .  A
C204        H208   1.085       .  S
C205        C206   1.402       .  A
C205       C2261   1.479       .  S
C206        H209   1.083       .  S
C210        C211   1.407       .  A
C210        C215   1.407       .  A
C210       C2453   1.487       .  S
C211        C212   1.405       .  A
C211        H216   1.085       .  S
C212        C213   1.401       .  A
C212       C2213   1.482       .  S
C213        C214   1.402       .  A
C213        H217   1.084       .  S
C214        C215   1.404       .  A
C214       C2237   1.483       .  S
C215        H218   1.084       .  S
O219       Cr237   2.015       .  S
O219        C227   1.265       .  A
O220       Cr237   1.974       .  S
O220        C221   1.256       .  A
C221       C2342   1.484       .  S
C221        O222   1.264       .  A
O222       Cr238   2.012       .  S
O223       Cr238   1.984       .  S
O223        C224   1.263       .  A
C224       C2174   1.484       .  S
C224        O225   1.269       .  A
O225       Cr239   2.002       .  S
O226       Cr239   1.967       .  S
O226        C227   1.258       .  A
C227       C2381   1.497       .  S
O228       Cr237   1.968       .  S
O228        C236   1.258       .  A
O229       Cr237   2.020       .  S
O229        C230   1.269       .  A
C230       C2285   1.480       .  S
C230        O231   1.262       .  A
O231       Cr238   1.978       .  S
O232       Cr238   2.001       .  S
O232        C233   1.263       .  A
C233       C2189   1.488       .  S
C233        O234   1.264       .  A
O234       Cr239   1.993       .  S
O235       Cr239   2.016       .  S
O235        C236   1.268       .  A
C236       C2246   1.482       .  S
Cr237       O240   1.772       .  S
Cr238       O240   1.770       .  S
Cr239       O240   1.768       .  S
C241        C242   1.411       .  A
C241        C246   1.413       .  A
C241       C2117   1.498       .  S
C242        C243   1.403       .  A
C242        H247   1.082       .  S
C243        C244   1.399       .  A
C243       C2198   1.482       .  S
C244        C245   1.401       .  A
C244        H248   1.086       .  S
C245        C246   1.408       .  A
C245       C2150   1.487       .  S
C246        H249   1.084       .  S
C250        C251   1.405       .  A
C250        C255   1.404       .  A
C250       C2093   1.475       .  S
C251        C252   1.403       .  A
C251        H256   1.084       .  S
C252        C253   1.400   1_455  A
C252       C2078   1.479       .  S
C253        C254   1.402       .  A
C253        H257   1.085       .  S
C254        C255   1.406   1_655  A
C254       C2414   1.485       .  S
C255        H258   1.082       .  S
O259       Cr277   2.014       .  S
O259        C267   1.265       .  A
O260       Cr277   1.974       .  S
O260        C261   1.258   1_655  A
C261       C2045   1.497   1_455  S
C261        O262   1.265       .  A
O262       Cr278   2.014       .  S
O263       Cr278   1.988   1_655  S
O263        C264   1.264       .  A
C264       C2366   1.494       .  S
C264        O265   1.267       .  A
O265       Cr279   2.002       .  S
O266       Cr279   1.976       .  S
O266        C267   1.261       .  A
C267       C2021   1.499       .  S
O268       Cr277   1.969   1_455  S
O268        C276   1.258   1_455  A
O269       Cr277   2.019   1_455  S
O269        C270   1.268       .  A
C270       C2126   1.490       .  S
C270        O271   1.260       .  A
O271       Cr278   1.974       .  S
O272       Cr278   1.996       .  S
O272        C273   1.264       .  A
C273       C1997   1.484       .  S
C273        O274   1.264       .  A
O274       Cr279   1.989   1_455  S
O275       Cr279   2.018       .  S
O275        C276   1.268       .  A
C276       C2069   1.486       .  S
Cr277       O280   1.772       .  S
Cr278       O280   1.769   1_455  S
Cr279       O280   1.769       .  S
O281       Cr299   2.011       .  S
O281        C289   1.266       .  A
O282       Cr299   1.960       .  S
O282        C283   1.259       .  A
C283       C2102   1.485       .  S
C283        O284   1.270       .  A
O284       Cr300   2.020       .  S
O285       Cr300   1.971       .  S
O285        C286   1.259       .  A
C286       C1934   1.485       .  S
C286        O287   1.266       .  A
O287       Cr301   2.000       .  S
O288       Cr301   1.982       .  S
O288        C289   1.259       .  A
C289       C2141   1.488       .  S
O290       Cr299   1.963       .  S
O290        C298   1.257       .  A
O291       Cr299   2.007       .  S
O291        C292   1.264       .  A
C292       C1973   1.481       .  S
C292        O293   1.257       .  A
O293       Cr300   1.979       .  S
O294       Cr300   2.005       .  S
O294        C295   1.268       .  A
C295       C2501   1.493       .  S
C295        O296   1.261       .  A
O296       Cr301   1.981       .  S
O297       Cr301   2.016       .  S
O297        C298   1.270       .  A
C298       C1949   1.484       .  S
Cr299       O302   1.769       .  S
Cr300       O302   1.766       .  S
Cr301       O302   1.768       .  S
C303        C304   1.410       .  A
C303        C308   1.408       .  A
C303       C1901   1.490       .  S
C304        C305   1.405       .  A
C304        H309   1.084       .  S
C305        C306   1.400       .  A
C305       C1982   1.482       .  S
C306        C307   1.401       .  A
C306        H310   1.085       .  S
C307        C308   1.405       .  A
C307       C1877   1.486       .  S
C308        H311   1.084       .  S
C312        C313   1.404       .  A
C312        C317   1.405       .  A
C312       C1958   1.480       .  S
C313        C314   1.401       .  A
C313        H318   1.083       .  S
C314        C315   1.402       .  A
C314       C1838   1.478       .  S
C315        C316   1.400       .  A
C315        H319   1.085       .  S
C316        C317   1.401       .  A
C316       C1853   1.474       .  S
C317        H320   1.084       .  S
O321       Cr339   2.016       .  S
O321        C329   1.267       .  A
O322       Cr339   1.966       .  S
O322        C323   1.255       .  A
C323       C1862   1.474       .  S
C323        O324   1.266       .  A
O324       Cr340   2.016       .  S
O325       Cr340   1.981       .  S
O325        C326   1.265       .  A
C326       C2558   1.480       .  S
C326        O327   1.269       .  A
O327       Cr341   2.008       .  S
O328       Cr341   1.970       .  S
O328        C329   1.257       .  A
C329       C1910   1.485       .  S
O330       Cr339   1.959       .  S
O330        C338   1.256       .  A
O331       Cr339   2.023       .  S
O331        C332   1.269       .  A
C332       C1781   1.490       .  S
C332        O333   1.259       .  A
O333       Cr340   1.976       .  S
O334       Cr340   1.996       .  S
O334        C335   1.264       .  A
C335       C1757   1.493       .  S
C335        O336   1.260       .  A
O336       Cr341   1.982       .  S
O337       Cr341   2.017       .  S
O337        C338   1.267       .  A
C338       C1805   1.488       .  S
Cr339       O342   1.774       .  S
Cr340       O342   1.772       .  S
Cr341       O342   1.768       .  S
C343        C344   1.413       .  A
C343        C348   1.410       .  A
C343       C2030   1.491       .  S
C344        C345   1.407       .  A
C344        H349   1.083       .  S
C345        C346   1.398       .  A
C345       C1742   1.483       .  S
C346        C347   1.396       .  A
C346        H350   1.085       .  S
C347        C348   1.402       .  A
C347       C1718   1.475       .  S
C348        H351   1.083       .  S
C352        C353   1.408       .  A
C352        C357   1.410       .  A
C352       C1694   1.490       .  S
C353        C354   1.406   1_655  A
C353        H358   1.084       .  S
C354        C355   1.401       .  A
C354       C1670   1.482       .  S
C355        C356   1.401   1_455  A
C355        H359   1.085       .  S
C356        C357   1.404       .  A
C356       C2054   1.483       .  S
C357        H360   1.084       .  S
C361        C362   1.411       .  A
C361        C366   1.406       .  A
C361       C1622   1.488       .  S
C362        C363   1.406       .  A
C362        H367   1.082       .  S
C363        C364   1.400       .  A
C363       C1646   1.481       .  S
C364        C365   1.397       .  A
C364        H368   1.084       .  S
C365        C366   1.402       .  A
C365       C3110   1.474       .  S
C366        H369   1.084       .  S
C370        C371   1.410       .  A
C370        C375   1.410       .  A
C370       C1598   1.493       .  S
C371        C372   1.407       .  A
C371        H376   1.083       .  S
C372        C373   1.402       .  A
C372       C1565   1.490       .  S
C373        C374   1.401       .  A
C373        H377   1.085       .  S
C374        C375   1.406       .  A
C374       C2630   1.485       .  S
C375        H378   1.082       .  S
O379       Cr397   2.000       .  S
O379        C387   1.262       .  A
O380       Cr397   1.974       .  S
O380        C381   1.262   1_545  A
C381       C1613   1.493       .  S
C381        O382   1.271       .  A
O382       Cr398   2.025       .  S
O383       Cr398   1.977       .  S
O383        C384   1.262       .  A
C384       C1541   1.483       .  S
C384        O385   1.267       .  A
O385       Cr399   2.011   1_565  S
O386       Cr399   1.991       .  S
O386        C387   1.261       .  A
C387       C1574   1.488       .  S
O388       Cr397   1.974       .  S
O388        C396   1.262       .  A
O389       Cr397   1.998       .  S
O389        C390   1.262       .  A
C390       C1733   1.491       .  S
C390        O391   1.259   1_545  A
O391       Cr398   1.986       .  S
O392       Cr398   2.007       .  S
O392        C393   1.267       .  A
C393       C2309   1.477       .  S
C393        O394   1.260       .  A
O394       Cr399   1.982   1_565  S
O395       Cr399   2.021       .  S
O395        C396   1.270       .  A
C396       C1685   1.489       .  S
Cr397       O400   1.770       .  S
Cr398       O400   1.769   1_565  S
Cr399       O400   1.771       .  S
O401       Cr419   2.022   1_565  S
O401        C409   1.268       .  A
O402       Cr419   1.971   1_565  S
O402        C403   1.257   1_565  A
C403       C1517   1.480       .  S
C403        O404   1.267       .  A
O404       Cr420   2.019       .  S
O405       Cr420   1.978       .  S
O405        C406   1.260       .  A
C406       C2693   1.490       .  S
C406        O407   1.267       .  A
O407       Cr421   2.000       .  S
O408       Cr421   1.980       .  S
O408        C409   1.259   1_545  A
C409       C1493   1.497       .  S
O410       Cr419   1.965       .  S
O410        C418   1.259       .  A
O411       Cr419   2.021       .  S
O411        C412   1.269       .  A
C412       C1589   1.490       .  S
C412        O413   1.260       .  A
O413       Cr420   1.979       .  S
O414       Cr420   2.010       .  S
O414        C415   1.267       .  A
C415       C1478   1.490       .  S
C415        O416   1.264       .  A
O416       Cr421   1.988       .  S
O417       Cr421   2.018       .  S
O417        C418   1.267       .  A
C418       C1637   1.495       .  S
Cr419       O422   1.772       .  S
Cr420       O422   1.772       .  S
Cr421       O422   1.769       .  S
C423        C424   1.410       .  A
C423        C428   1.410       .  A
C423       C1502   1.495       .  S
C424        C425   1.407       .  A
C424        H429   1.085       .  S
C425        C426   1.403   1_455  A
C425       C1445   1.491       .  S
C426        C427   1.403       .  A
C426        H430   1.084       .  S
C427        C428   1.407   1_655  A
C427       C1430   1.489       .  S
C428        H431   1.082       .  S
C432        C433   1.411       .  A
C432        C437   1.410       .  A
C432       C1406   1.491       .  S
C433        C434   1.404       .  A
C433        H438   1.084       .  S
C434        C435   1.397       .  A
C434       C1526   1.479       .  S
C435        C436   1.397       .  A
C435        H439   1.084       .  S
C436        C437   1.405       .  A
C436       C1373   1.480       .  S
C437        H440   1.084       .  S
C441        C442   1.413       .  A
C441        C446   1.409       .  A
C441       C1790   1.497       .  S
C442        C443   1.409   1_655  A
C442        H447   1.083       .  S
C443        C444   1.401       .  A
C443       C2861   1.489       .  S
C444        C445   1.400   1_455  A
C444        H448   1.084       .  S
C445        C446   1.402       .  A
C445       C1358   1.479       .  S
C446        H449   1.084       .  S
C450        C451   1.408       .  A
C450        C455   1.409       .  A
C450       C1325   1.487       .  S
C451        C452   1.403       .  A
C451        H456   1.084       .  S
C452        C453   1.398       .  A
C452       C2774   1.477       .  S
C453        C454   1.401       .  A
C453        H457   1.086       .  S
C454        C455   1.404       .  A
C454       C1814   1.478       .  S
C455        H458   1.083       .  S
O459       Cr477   1.979       .  S
O459        C467   1.258       .  A
O460       Cr477   2.005       .  S
O460        C461   1.264       .  A
C461       C1334   1.489       .  S
C461        O462   1.259       .  A
O462       Cr478   1.981       .  S
O463       Cr478   2.001       .  S
O463        C464   1.266       .  A
C464       C1310   1.473       .  S
C464        O465   1.263       .  A
O465       Cr479   1.980   1_655  S
O466       Cr479   2.007       .  S
O466        C467   1.263   1_455  A
C467       C1349   1.477       .  S
O468       Cr477   2.015   1_455  S
O468        C476   1.268       .  A
O469       Cr477   1.974   1_455  S
O469        C470   1.260   1_455  A
C470       C1454   1.481       .  S
C470        O471   1.268       .  A
O471       Cr478   2.015       .  S
O472       Cr478   1.995   1_455  S
O472        C473   1.264       .  A
C473       C2654   1.484       .  S
C473        O474   1.262       .  A
O474       Cr479   1.989       .  S
O475       Cr479   1.974       .  S
O475        C476   1.260       .  A
C476       C1397   1.483       .  S
Cr477       O480   1.776       .  S
Cr478       O480   1.775       .  S
Cr479       O480   1.775   1_455  S
C481        C482   1.409       .  A
C481        C486   1.410       .  A
C481       C1262   1.491       .  S
C482        C483   1.405       .  A
C482        H487   1.084       .  S
C483        C484   1.400       .  A
C483       C2006   1.485       .  S
C484        C485   1.398       .  A
C484        H488   1.084       .  S
C485        C486   1.402       .  A
C485       C1277   1.475       .  S
C486        H489   1.083       .  S
C490        C491   1.404       .  A
C490        C495   1.402   1_565  A
C490       C1229   1.476       .  S
C491        C492   1.401   1_565  A
C491        H496   1.084       .  S
C492        C493   1.398       .  A
C492       C1214   1.471       .  S
C493        C494   1.400       .  A
C493        H497   1.084       .  S
C494        C495   1.402       .  A
C494       C1925   1.475       .  S
C495        H498   1.084       .  S
O499       Cr517   2.026   1_565  S
O499        C507   1.270       .  A
O500       Cr517   1.963       .  S
O500        C501   1.257       .  A
C501       C1205   1.483       .  S
C501        O502   1.265       .  A
O502       Cr518   2.012       .  S
O503       Cr518   1.990       .  S
O503        C504   1.264   1_545  A
C504       C2270   1.491       .  S
C504        O505   1.264       .  A
O505       Cr519   2.005   1_565  S
O506       Cr519   1.968   1_565  S
O506        C507   1.258       .  A
C507       C1253   1.481       .  S
O508       Cr517   1.968       .  S
O508        C516   1.254       .  A
O509       Cr517   2.015       .  S
O509        C510   1.268       .  A
C510       C1157   1.487       .  S
C510        O511   1.260       .  A
O511       Cr518   1.975       .  S
O512       Cr518   2.005       .  S
O512        C513   1.268       .  A
C513       C1709   1.474       .  S
C513        O514   1.263       .  A
O514       Cr519   1.977       .  S
O515       Cr519   2.020   1_565  S
O515        C516   1.267   1_565  A
C516       C1181   1.494       .  S
Cr517       O520   1.773       .  S
Cr518       O520   1.771       .  S
Cr519       O520   1.774       .  S
C521        C522   1.404   1_565  A
C521        C526   1.409       .  A
C521       C1109   1.485       .  S
C522        C523   1.400       .  A
C522        H527   1.084       .  S
C523        C524   1.401       .  A
C523       C2606   1.477       .  S
C524        C525   1.401       .  A
C524        H528   1.085       .  S
C525        C526   1.405   1_545  A
C525       C1142   1.482       .  S
C526        H529   1.084       .  S
C530        C531   1.408       .  A
C530        C535   1.408       .  A
C530       C1085   1.487       .  S
C531        C532   1.407       .  A
C531        H536   1.085       .  S
C532        C533   1.402       .  A
C532       C1061   1.486       .  S
C533        C534   1.399       .  A
C533        H537   1.085       .  S
C534        C535   1.403       .  A
C534       C2750   1.478       .  S
C535        H538   1.083       .  S
C539        C540   1.406       .  A
C539        C544   1.409       .  A
C539       C1013   1.484       .  S
C540        C541   1.403       .  A
C540        H545   1.085       .  S
C541        C542   1.397       .  A
C541       C2837   1.475       .  S
C542        C543   1.400       .  A
C542        H546   1.084       .  S
C543        C544   1.407       .  A
C543       C1037   1.483       .  S
C544        H547   1.084       .  S
C548        C549   1.405       .  A
C548        C553   1.403       .  A
C548        C989   1.476       .  S
C549        C550   1.404       .  A
C549        H554   1.085       .  S
C550        C551   1.400       .  A
C550        C965   1.481       .  S
C551        C552   1.401       .  A
C551        H555   1.083       .  S
C552        C553   1.403       .  A
C552       C2429   1.484       .  S
C553        H556   1.083       .  S
C557        C558   1.406       .  A
C557        C562   1.405       .  A
C557        C926   1.481       .  S
C558        C559   1.406       .  A
C558        H563   1.085       .  S
C559        C560   1.400       .  A
C559       C1766   1.480   1_545  S
C560        C561   1.400       .  A
C560        H564   1.084   1_545  S
C561        C562   1.400       .  A
C561        C941   1.475       .  S
C562        H565   1.083       .  S
C566        C567   1.408       .  A
C566        C571   1.414       .  A
C566        C893   1.491       .  S
C567        C568   1.400       .  A
C567        H572   1.084       .  S
C568        C569   1.394       .  A
C568       C1301   1.474       .  S
C569        C570   1.402       .  A
C569        H573   1.084       .  S
C570        C571   1.413       .  A
C570        C869   1.494       .  S
C571        H574   1.083       .  S
O575       Cr593   1.975       .  S
O575        C583   1.261       .  A
O576       Cr593   2.005       .  S
O576        C577   1.263   1_655  A
C577        C878   1.493   1_455  S
C577        O578   1.259       .  A
O578       Cr594   1.986       .  S
O579       Cr594   2.005       .  S
O579        C580   1.268       .  A
C580       C3005   1.471       .  S
C580        O581   1.259       .  A
O581       Cr595   1.968       .  S
O582       Cr595   2.015   1_655  S
O582        C583   1.267       .  A
C583        C917   1.494       .  S
O584       Cr593   2.005       .  S
O584        C592   1.266       .  A
O585       Cr593   1.966       .  S
O585        C586   1.261   1_655  A
C586       C1022   1.493       .  S
C586        O587   1.271       .  A
O587       Cr594   2.024       .  S
O588       Cr594   1.979       .  S
O588        C589   1.260       .  A
C589       C1886   1.490       .  S
C589        O590   1.266       .  A
O590       Cr595   2.004       .  S
O591       Cr595   1.976       .  S
O591        C592   1.258   1_455  A
C592        C974   1.480       .  S
Cr593       O596   1.767   1_655  S
Cr594       O596   1.770       .  S
Cr595       O596   1.768       .  S
O597       Cr615   1.967       .  S
O597        C605   1.258       .  A
O598       Cr615   2.021   1_565  S
O598        C599   1.270       .  A
C599       C1094   1.494       .  S
C599        O600   1.258       .  A
O600       Cr616   1.973   1_565  S
O601       Cr616   1.994       .  S
O601        C602   1.263       .  A
C602       C1382   1.483   1_545  S
C602        O603   1.264       .  A
O603       Cr617   1.995       .  S
O604       Cr617   2.020       .  S
O604        C605   1.268       .  A
C605       C1133   1.478       .  S
O606       Cr615   2.013       .  S
O606        C614   1.267       .  A
O607       Cr615   1.972       .  S
O607        C608   1.256       .  A
C608        C950   1.475       .  S
C608        O609   1.265       .  A
O609       Cr616   2.012       .  S
O610       Cr616   1.980       .  S
O610        C611   1.263       .  A
C611       C2942   1.481       .  S
C611        O612   1.268       .  A
O612       Cr617   2.009       .  S
O613       Cr617   1.977       .  S
O613        C614   1.259       .  A
C614        C902   1.488       .  S
Cr615       O618   1.771       .  S
Cr616       O618   1.770       .  S
Cr617       O618   1.770       .  S
O619       Cr637   1.998       .  S
O619        C627   1.262       .  A
O620       Cr637   1.962   1_655  S
O620        C621   1.258       .  A
C621        C998   1.482       .  S
C621        O622   1.271       .  A
O622       Cr638   2.022       .  S
O623       Cr638   1.970       .  S
O623        C624   1.260       .  A
C624       C1829   1.482       .  S
C624        O625   1.268       .  A
O625       Cr639   2.011       .  S
O626       Cr639   1.981       .  S
O626        C627   1.259   1_655  A
C627       C1046   1.474       .  S
O628       Cr637   1.964       .  S
O628        C636   1.261       .  A
O629       Cr637   2.000       .  S
O629        C630   1.262   1_455  A
C630       C1286   1.472   1_655  S
C630        O631   1.258       .  A
O631       Cr638   1.978       .  S
O632       Cr638   2.011       .  S
O632        C633   1.267       .  A
C633       C2222   1.481       .  S
C633        O634   1.259       .  A
O634       Cr639   1.975       .  S
O635       Cr639   2.021   1_455  S
O635        C636   1.269       .  A
C636       C1238   1.489       .  S
Cr637       O640   1.767   1_455  S
Cr638       O640   1.767       .  S
Cr639       O640   1.765       .  S
C641        C642   1.409       .  A
C641        C646   1.408       .  A
C641        C821   1.488       .  S
C642        C643   1.406       .  A
C642        H647   1.084       .  S
C643        C644   1.402       .  A
C643        C854   1.482       .  S
C644        C645   1.398       .  A
C644        H648   1.084       .  S
C645        C646   1.405       .  A
C645       C1469   1.482       .  S
C646        H649   1.084       .  S
C650        C651   1.408       .  A
C650        C655   1.410       .  A
C650        C806   1.488       .  S
C651        C652   1.404       .  A
C651        H656   1.083       .  S
C652        C653   1.399       .  A
C652       C1550   1.481       .  S
C653        C654   1.402       .  A
C653        H657   1.084       .  S
C654        C655   1.407       .  A
C654        C773   1.487       .  S
C655        H658   1.084       .  S
O659       Cr677   1.975       .  S
O659        C667   1.263       .  A
O660       Cr677   1.998       .  S
O660        C661   1.262       .  A
C661       C1070   1.483       .  S
C661        O662   1.259       .  A
O662       Cr678   1.987       .  S
O663       Cr678   2.015       .  S
O663        C664   1.268       .  A
C664       C1421   1.494       .  S
C664        O665   1.263       .  A
O665       Cr679   1.981       .  S
O666       Cr679   2.017       .  S
O666        C667   1.268       .  A
C667       C1118   1.496       .  S
O668       Cr677   1.999       .  S
O668        C676   1.263       .  A
O669       Cr677   1.970       .  S
O669        C670   1.261       .  A
C670        C830   1.481       .  S
C670        O671   1.273       .  A
O671       Cr678   2.029       .  S
O672       Cr678   1.975       .  S
O672        C673   1.260       .  A
C673       C3182   1.490       .  S
C673        O674   1.267       .  A
O674       Cr679   2.001       .  S
O675       Cr679   1.991       .  S
O675        C676   1.260       .  A
C676        C782   1.486       .  S
Cr677       O680   1.769       .  S
Cr678       O680   1.770       .  S
Cr679       O680   1.765       .  S
C681        C682   1.412       .  A
C681        C686   1.409       .  A
C681       C1166   1.492       .  S
C682        C683   1.408       .  A
C682        H687   1.083       .  S
C683        C684   1.400       .  A
C683        C749   1.487       .  S
C684        C685   1.397       .  A
C684        H688   1.085       .  S
C685        C686   1.405       .  A
C685       C2165   1.479       .  S
C686        H689   1.083       .  S
C690        C691   1.409       .  A
C690        C695   1.411       .  A
C690        C725   1.495       .  S
C691        C692   1.403       .  A
C691        H696   1.083       .  S
C692        C693   1.400       .  A
C692       C3077   1.482   1_545  S
C693        C694   1.403       .  A
C693        H697   1.084   1_545  S
C694        C695   1.409       .  A
C694       C1190   1.490       .  S
C695        H698   1.084       .  S
O699       Cr717   1.963       .  S
O699        C707   1.257       .  A
O700       Cr717   2.018       .  S
O700        C701   1.266       .  A
C701        C734   1.486       .  S
C701        O702   1.260       .  A
O702       Cr718   1.977       .  S
O703       Cr718   1.998       .  S
O703        C704   1.263       .  A
C704       C1661   1.480       .  S
C704        O705   1.260       .  A
O705       Cr719   1.981       .  S
O706       Cr719   2.021       .  S
O706        C707   1.268       .  A
C707        C758   1.478       .  S
O708       Cr717   2.014       .  S
O708        C716   1.265       .  A
O709       Cr717   1.963       .  S
O709        C710   1.255       .  A
C710        C845   1.469       .  S
C710        O711   1.265       .  A
O711       Cr718   2.012       .  S
O712       Cr718   1.981       .  S
O712        C713   1.263       .  A
C713       C3254   1.478       .  S
C713        O714   1.266       .  A
O714       Cr719   2.004       .  S
O715       Cr719   1.976       .  S
O715        C716   1.260       .  A
C716        C797   1.502       .  S
Cr717       O720   1.782       .  S
Cr718       O720   1.778       .  S
Cr719       O720   1.776       .  S
C721        C722   1.403       .  A
C721        C726   1.400       .  A
C721        H731   1.085       .  S
C722        C723   1.416       .  A
C722        C727   1.491       .  S
C723        C724   1.405       .  A
C723        S728   1.805       .  S
C724        C725   1.408       .  A
C724        H729   1.084       .  S
C725        C726   1.417       .  A
C726        S730   1.804       .  S
C727        C732   1.414       .  A
C727        C736   1.401       .  A
S728        H744   1.405       .  S
S730        H741   1.407       .  S
C732        C733   1.411       .  A
C732        S737   1.805       .  S
C733        C734   1.407       .  A
C733        H738   1.082       .  S
C734        C735   1.416       .  A
C735        C736   1.397       .  A
C735        S739   1.803       .  S
C736        H740   1.084       .  S
S737        H742   1.407       .  S
S739        H743   1.404       .  S
C745        C746   1.406       .  A
C745        C750   1.402       .  A
C745        H755   1.084       .  S
C746        C747   1.413       .  A
C746        C751   1.487       .  S
C747        C748   1.397       .  A
C747        S752   1.804       .  S
C748        C749   1.406       .  A
C748        H753   1.084       .  S
C749        C750   1.414       .  A
C750        S754   1.801       .  S
C751        C756   1.413       .  A
C751        C760   1.404       .  A
S752        H768   1.406       .  S
S754        H765   1.406       .  S
C756        C757   1.403       .  A
C756        S761   1.808       .  S
C757        C758   1.404       .  A
C757        H762   1.082       .  S
C758        C759   1.412       .  A
C759        C760   1.399       .  A
C759        S763   1.797       .  S
C760        H764   1.083       .  S
S761        H766   1.407       .  S
S763        H767   1.399       .  S
C769        C770   1.403       .  A
C769        C774   1.397       .  A
C769        H779   1.083       .  S
C770        C771   1.414       .  A
C770        C775   1.488       .  S
C771        C772   1.405       .  A
C771        S776   1.803       .  S
C772        C773   1.406       .  A
C772        H777   1.082       .  S
C773        C774   1.415       .  A
C774        S778   1.805       .  S
C775        C780   1.409       .  A
C775        C784   1.406       .  A
S776        H792   1.406       .  S
S778        H789   1.407       .  S
C780        C781   1.399       .  A
C780        S785   1.808       .  S
C781        C782   1.406       .  A
C781        H786   1.084       .  S
C782        C783   1.415       .  A
C783        C784   1.409       .  A
C783        S787   1.806       .  S
C784        H788   1.084       .  S
S785        H790   1.407       .  S
S787        H791   1.407       .  S
C793        C794   1.403       .  A
C793        C798   1.406       .  A
C793        H803   1.085       .  S
C794        C795   1.411       .  A
C794        C799   1.490       .  S
C795        C796   1.401       .  A
C795        S800   1.805       .  S
C796        C797   1.410       .  A
C796        H801   1.080       .  S
C797        C798   1.422       .  A
C798        S802   1.800       .  S
C799        C804   1.411       .  A
C799        C808   1.404       .  A
S800        H816   1.406       .  S
S802        H813   1.408       .  S
C804        C805   1.407       .  A
C804        S809   1.806       .  S
C805        C806   1.405       .  A
C805        H810   1.084       .  S
C806        C807   1.415       .  A
C807        C808   1.402       .  A
C807        S811   1.804       .  S
C808        H812   1.086       .  S
S809        H814   1.407       .  S
S811        H815   1.406       .  S
C817        C818   1.403       .  A
C817        C822   1.402       .  A
C817        H827   1.084       .  S
C818        C819   1.412       .  A
C818        C823   1.484       .  S
C819        C820   1.401       .  A
C819        S824   1.804       .  S
C820        C821   1.405       .  A
C820        H825   1.084       .  S
C821        C822   1.416       .  A
C822        S826   1.803       .  S
C823        C828   1.410       .  A
C823        C832   1.400       .  A
S824        H840   1.405       .  S
S826        H837   1.407       .  S
C828        C829   1.408       .  A
C828        S833   1.805       .  S
C829        C830   1.405       .  A
C829        H834   1.081       .  S
C830        C831   1.418       .  A
C831        C832   1.399       .  A
C831        S835   1.805       .  S
C832        H836   1.082       .  S
S833        H838   1.407       .  S
S835        H839   1.404       .  S
C841        C842   1.405       .  A
C841        C846   1.398       .  A
C841        H851   1.086       .  S
C842        C843   1.415       .  A
C842        C847   1.486       .  S
C843        C844   1.400       .  A
C843        S848   1.804       .  S
C844        C845   1.401       .  A
C844        H849   1.086       .  S
C845        C846   1.410       .  A
C846        S850   1.804       .  S
C847        C852   1.413       .  A
C847        C856   1.402       .  A
S848        H864   1.406       .  S
S850        H861   1.406       .  S
C852        C853   1.404       .  A
C852        S857   1.808       .  S
C853        C854   1.403       .  A
C853        H858   1.083       .  S
C854        C855   1.414       .  A
C855        C856   1.397       .  A
C855        S859   1.804       .  S
C856        H860   1.084       .  S
S857        H862   1.407       .  S
S859        H863   1.407       .  S
C865        C866   1.406       .  A
C865        C870   1.407       .  A
C865        H875   1.084       .  S
C866        C867   1.411       .  A
C866        C871   1.489       .  S
C867        C868   1.395       .  A
C867        S872   1.805       .  S
C868        C869   1.407       .  A
C868        H873   1.085       .  S
C869        C870   1.418       .  A
C870        S874   1.802       .  S
C871        C876   1.410   1_655  A
C871        C880   1.401       .  A
S872        H888   1.407       .  S
S874        H885   1.406       .  S
C876        C877   1.408       .  A
C876        S881   1.806       .  S
C877        C878   1.410   1_455  A
C877        H882   1.082       .  S
C878        C879   1.419       .  A
C879        C880   1.402       .  A
C879        S883   1.809       .  S
C880        H884   1.082       .  S
S881        H886   1.407       .  S
S883        H887   1.406       .  S
C889        C890   1.402       .  A
C889        C894   1.402       .  A
C889        H899   1.086       .  S
C890        C891   1.415       .  A
C890        C895   1.488       .  S
C891        C892   1.404       .  A
C891        S896   1.805       .  S
C892        C893   1.405       .  A
C892        H897   1.086       .  S
C893        C894   1.417       .  A
C894        S898   1.804       .  S
C895        C900   1.410       .  A
C895        C904   1.402       .  A
S896        H912   1.405       .  S
S898        H909   1.407       .  S
C900        C901   1.407       .  A
C900        S905   1.806       .  S
C901        C902   1.407       .  A
C901        H906   1.084       .  S
C902        C903   1.416       .  A
C903        C904   1.402       .  A
C903        S907   1.803       .  S
C904        H908   1.085       .  S
S905        H910   1.407       .  S
S907        H911   1.407       .  S
C913        C914   1.401       .  A
C913        C918   1.406       .  A
C913        H923   1.083       .  S
C914        C915   1.408       .  A
C914        C919   1.480       .  S
C915        C916   1.397       .  A
C915        S920   1.804       .  S
C916        C917   1.408       .  A
C916        H921   1.083       .  S
C917        C918   1.422       .  A
C918        S922   1.809       .  S
C919        C924   1.409       .  A
C919        C928   1.401       .  A
S920        H936   1.405       .  S
S922        H933   1.407       .  S
C924        C925   1.405       .  A
C924        S929   1.805       .  S
C925        C926   1.405       .  A
C925        H930   1.084       .  S
C926        C927   1.414       .  A
C927        C928   1.398       .  A
C927        S931   1.804       .  S
C928        H932   1.086       .  S
S929        H934   1.407       .  S
S931        H935   1.407       .  S
C937        C938   1.402       .  A
C937        C942   1.397       .  A
C937        H947   1.085       .  S
C938        C939   1.413       .  A
C938        C943   1.479       .  S
C939        C940   1.400       .  A
C939        S944   1.803       .  S
C940        C941   1.403       .  A
C940        H945   1.085       .  S
C941        C942   1.412       .  A
C942        S946   1.805       .  S
C943        C948   1.410       .  A
C943        C952   1.401       .  A
S944        H960   1.406       .  S
S946        H957   1.406       .  S
C948        C949   1.402       .  A
C948        S953   1.807   1_545  S
C949        C950   1.402       .  A
C949        H954   1.082   1_545  S
C950        C951   1.416       .  A
C951        C952   1.399       .  A
C951        S955   1.804       .  S
C952        H956   1.084       .  S
S953        H958   1.407       .  S
S955        H959   1.406       .  S
C961        C962   1.402       .  A
C961        C966   1.397   1_554  A
C961        H971   1.083       .  S
C962        C963   1.412   1_554  A
C962        C967   1.479       .  S
C963        C964   1.401       .  A
C963        S968   1.804   1_656  S
C964        C965   1.405       .  A
C964        H969   1.083       .  S
C965        C966   1.415       .  A
C966        S970   1.805       .  S
C967        C972   1.407       .  A
C967        C976   1.404       .  A
S968        H984   1.406       .  S
S970        H981   1.407       .  S
C972        C973   1.399       .  A
C972        S977   1.807       .  S
C973        C974   1.405       .  A
C973        H978   1.082       .  S
C974        C975   1.415       .  A
C975        C976   1.405       .  A
C975        S979   1.808       .  S
C976        H980   1.082       .  S
S977        H982   1.407       .  S
S979        H983   1.407       .  S
C985        C986   1.404       .  A
C985        C990   1.399       .  A
C985        H995   1.086       .  S
C986        C987   1.414       .  A
C986        C991   1.483       .  S
C987        C988   1.399       .  A
C987        S992   1.804       .  S
C988        C989   1.402       .  A
C988        H993   1.086       .  S
C989        C990   1.412       .  A
C990        S994   1.804       .  S
C991        C996   1.411       .  A
C991       C1000   1.401       .  A
S992       H1008   1.406       .  S
S994       H1005   1.406       .  S
C996        C997   1.403       .  A
C996       S1001   1.807       .  S
C997        C998   1.405       .  A
C997       H1002   1.083       .  S
C998        C999   1.417       .  A
C999       C1000   1.397       .  A
C999       S1003   1.803   1_655  S
C1000      H1004   1.085       .  S
S1001      H1006   1.407       .  S
S1003      H1007   1.408       .  S
C1009      C1010   1.405       .  A
C1009      C1014   1.402       .  A
C1009      H1019   1.084       .  S
C1010      C1011   1.414       .  A
C1010      C1015   1.489       .  S
C1011      C1012   1.402       .  A
C1011      S1016   1.803       .  S
C1012      C1013   1.404       .  A
C1012      H1017   1.084       .  S
C1013      C1014   1.413       .  A
C1014      S1018   1.804       .  S
C1015      C1020   1.409       .  A
C1015      C1024   1.405       .  A
S1016      H1032   1.406       .  S
S1018      H1029   1.406       .  S
C1020      C1021   1.402       .  A
C1020      S1025   1.808       .  S
C1021      C1022   1.410       .  A
C1021      H1026   1.081       .  S
C1022      C1023   1.417       .  A
C1023      C1024   1.405       .  A
C1023      S1027   1.801       .  S
C1024      H1028   1.082       .  S
S1025      H1030   1.407       .  S
S1027      H1031   1.408       .  S
C1033      C1034   1.402       .  A
C1033      C1038   1.401   1_556  A
C1033      H1043   1.084       .  S
C1034      C1035   1.411       .  A
C1034      C1039   1.479       .  S
C1035      C1036   1.397       .  A
C1035      S1040   1.805       .  S
C1036      C1037   1.406   1_556  A
C1036      H1041   1.084       .  S
C1037      C1038   1.415       .  A
C1038      S1042   1.803       .  S
C1039      C1044   1.408       .  A
C1039      C1048   1.403       .  A
S1040      H1056   1.405       .  S
S1042      H1053   1.406       .  S
C1044      C1045   1.401       .  A
C1044      S1049   1.807       .  S
C1045      C1046   1.405       .  A
C1045      H1050   1.084       .  S
C1046      C1047   1.412       .  A
C1047      C1048   1.400       .  A
C1047      S1051   1.803       .  S
C1048      H1052   1.085       .  S
S1049      H1054   1.406       .  S
S1051      H1055   1.407       .  S
C1057      C1058   1.404       .  A
C1057      C1062   1.399       .  A
C1057      H1067   1.083       .  S
C1058      C1059   1.414       .  A
C1058      C1063   1.487       .  S
C1059      C1060   1.402       .  A
C1059      S1064   1.803       .  S
C1060      C1061   1.405       .  A
C1060      H1065   1.083       .  S
C1061      C1062   1.415       .  A
C1062      S1066   1.804       .  S
C1063      C1068   1.410       .  A
C1063      C1072   1.405       .  A
S1064      H1080   1.406       .  S
S1066      H1077   1.407       .  S
C1068      C1069   1.401       .  A
C1068      S1073   1.808       .  S
C1069      C1070   1.406       .  A
C1069      H1074   1.082       .  S
C1070      C1071   1.414       .  A
C1071      C1072   1.403       .  A
C1071      S1075   1.802       .  S
C1072      H1076   1.083       .  S
S1073      H1078   1.407       .  S
S1075      H1079   1.407       .  S
C1081      C1082   1.403       .  A
C1081      C1086   1.403       .  A
C1081      H1091   1.082       .  S
C1082      C1083   1.414       .  A
C1082      C1087   1.487       .  S
C1083      C1084   1.403       .  A
C1083      S1088   1.803       .  S
C1084      C1085   1.405       .  A
C1084      H1089   1.082       .  S
C1085      C1086   1.415       .  A
C1086      S1090   1.803       .  S
C1087      C1092   1.409       .  A
C1087      C1096   1.401       .  A
S1088      H1104   1.403       .  S
S1090      H1101   1.406       .  S
C1092      C1093   1.407       .  A
C1092      S1097   1.806       .  S
C1093      C1094   1.409       .  A
C1093      H1098   1.081       .  S
C1094      C1095   1.419       .  A
C1095      C1096   1.404       .  A
C1095      S1099   1.804       .  S
C1096      H1100   1.082       .  S
S1097      H1102   1.407       .  S
S1099      H1103   1.408       .  S
C1105      C1106   1.403       .  A
C1105      C1110   1.399       .  A
C1105      H1115   1.086       .  S
C1106      C1107   1.411       .  A
C1106      C1111   1.482       .  S
C1107      C1108   1.399       .  A
C1107      S1112   1.804       .  S
C1108      C1109   1.406       .  A
C1108      H1113   1.086       .  S
C1109      C1110   1.414       .  A
C1110      S1114   1.804       .  S
C1111      C1116   1.405       .  A
C1111      C1120   1.400       .  A
S1112      H1128   1.406       .  S
S1114      H1125   1.407       .  S
C1116      C1117   1.402       .  A
C1116      S1121   1.807       .  S
C1117      C1118   1.411       .  A
C1117      H1122   1.081       .  S
C1118      C1119   1.423       .  A
C1119      C1120   1.406       .  A
C1119      S1123   1.810       .  S
C1120      H1124   1.082       .  S
S1121      H1126   1.404       .  S
S1123      H1127   1.407       .  S
C1129      C1130   1.403   1_565  A
C1129      C1134   1.399       .  A
C1129      H1139   1.084       .  S
C1130      C1131   1.415       .  A
C1130      C1135   1.486       .  S
C1131      C1132   1.401       .  A
C1131      S1136   1.804       .  S
C1132      C1133   1.403       .  A
C1132      H1137   1.084       .  S
C1133      C1134   1.414   1_545  A
C1134      S1138   1.803       .  S
C1135      C1140   1.412       .  A
C1135      C1144   1.403       .  A
S1136      H1152   1.406       .  S
S1138      H1149   1.407       .  S
C1140      C1141   1.405   1_545  A
C1140      S1145   1.806   1_545  S
C1141      C1142   1.404   1_565  A
C1141      H1146   1.082       .  S
C1142      C1143   1.414       .  A
C1143      C1144   1.399       .  A
C1143      S1147   1.804       .  S
C1144      H1148   1.083       .  S
S1145      H1150   1.407       .  S
S1147      H1151   1.406       .  S
C1153      C1154   1.404       .  A
C1153      C1158   1.404       .  A
C1153      H1163   1.083       .  S
C1154      C1155   1.413       .  A
C1154      C1159   1.488       .  S
C1155      C1156   1.402       .  A
C1155      S1160   1.804       .  S
C1156      C1157   1.405       .  A
C1156      H1161   1.081       .  S
C1157      C1158   1.416       .  A
C1158      S1162   1.803       .  S
C1159      C1164   1.410       .  A
C1159      C1168   1.401       .  A
S1160      H1176   1.406       .  S
S1162      H1173   1.407       .  S
C1164      C1165   1.408       .  A
C1164      S1169   1.805       .  S
C1165      C1166   1.408       .  A
C1165      H1170   1.084       .  S
C1166      C1167   1.416       .  A
C1167      C1168   1.400       .  A
C1167      S1171   1.802       .  S
C1168      H1172   1.085       .  S
S1169      H1174   1.407       .  S
S1171      H1175   1.406       .  S
C1177      C1178   1.401       .  A
C1177      C1182   1.403       .  A
C1177      H1187   1.082       .  S
C1178      C1179   1.411       .  A
C1178      C1183   1.486       .  S
C1179      C1180   1.402       .  A
C1179      S1184   1.803   1_545  S
C1180      C1181   1.408       .  A
C1180      H1185   1.082   1_545  S
C1181      C1182   1.422       .  A
C1182      S1186   1.809       .  S
C1183      C1188   1.410       .  A
C1183      C1192   1.403       .  A
S1184      H1200   1.406       .  S
S1186      H1197   1.407       .  S
C1188      C1189   1.402       .  A
C1188      S1193   1.808   1_545  S
C1189      C1190   1.406       .  A
C1189      H1194   1.084       .  S
C1190      C1191   1.417       .  A
C1191      C1192   1.403       .  A
C1191      S1195   1.803       .  S
C1192      H1196   1.085       .  S
S1193      H1198   1.407       .  S
S1195      H1199   1.406       .  S
C1201      C1202   1.402       .  A
C1201      C1206   1.402       .  A
C1201      H1211   1.084       .  S
C1202      C1203   1.409   1_545  A
C1202      C1207   1.477       .  S
C1203      C1204   1.396       .  A
C1203      S1208   1.805       .  S
C1204      C1205   1.407   1_565  A
C1204      H1209   1.084       .  S
C1205      C1206   1.417       .  A
C1206      S1210   1.802       .  S
C1207      C1212   1.409       .  A
C1207      C1216   1.402       .  A
S1208      H1224   1.406       .  S
S1210      H1221   1.408       .  S
C1212      C1213   1.404       .  A
C1212      S1217   1.805       .  S
C1213      C1214   1.403       .  A
C1213      H1218   1.083       .  S
C1214      C1215   1.410       .  A
C1215      C1216   1.396       .  A
C1215      S1219   1.804       .  S
C1216      H1220   1.084       .  S
S1217      H1222   1.407       .  S
S1219      H1223   1.405   1_545  S
C1225      C1226   1.401       .  A
C1225      C1230   1.400       .  A
C1225      H1235   1.082       .  S
C1226      C1227   1.412       .  A
C1226      C1231   1.475       .  S
C1227      C1228   1.397       .  A
C1227      S1232   1.805       .  S
C1228      C1229   1.402       .  A
C1228      H1233   1.082       .  S
C1229      C1230   1.414       .  A
C1230      S1234   1.804       .  S
C1231      C1236   1.405       .  A
C1231      C1240   1.399       .  A
S1232      H1248   1.405       .  S
S1234      H1245   1.406       .  S
C1236      C1237   1.399       .  A
C1236      S1241   1.808       .  S
C1237      C1238   1.410       .  A
C1237      H1242   1.082       .  S
C1238      C1239   1.420       .  A
C1239      C1240   1.400       .  A
C1239      S1243   1.800       .  S
C1240      H1244   1.084       .  S
S1241      H1246   1.407       .  S
S1243      H1247   1.405       .  S
C1249      C1250   1.400       .  A
C1249      C1254   1.396       .  A
C1249      H1259   1.083       .  S
C1250      C1251   1.416       .  A
C1250      C1255   1.488       .  S
C1251      C1252   1.407       .  A
C1251      S1256   1.803       .  S
C1252      C1253   1.405       .  A
C1252      H1257   1.082       .  S
C1253      C1254   1.417       .  A
C1254      S1258   1.805       .  S
C1255      C1260   1.412       .  A
C1255      C1264   1.402       .  A
S1256      H1272   1.406       .  S
S1258      H1269   1.401       .  S
C1260      C1261   1.405       .  A
C1260      S1265   1.807       .  S
C1261      C1262   1.406       .  A
C1261      H1266   1.081       .  S
C1262      C1263   1.417       .  A
C1263      C1264   1.401       .  A
C1263      S1267   1.802       .  S
C1264      H1268   1.081       .  S
S1265      H1270   1.407       .  S
S1267      H1271   1.406       .  S
C1273      C1274   1.401       .  A
C1273      C1278   1.397       .  A
C1273      H1283   1.084       .  S
C1274      C1275   1.414       .  A
C1274      C1279   1.480       .  S
C1275      C1276   1.401       .  A
C1275      S1280   1.804       .  S
C1276      C1277   1.402       .  A
C1276      H1281   1.083       .  S
C1277      C1278   1.413       .  A
C1278      S1282   1.803       .  S
C1279      C1284   1.410       .  A
C1279      C1288   1.402       .  A
S1280      H1296   1.407       .  S
S1282      H1293   1.403       .  S
C1284      C1285   1.403       .  A
C1284      S1289   1.807       .  S
C1285      C1286   1.405       .  A
C1285      H1290   1.083       .  S
C1286      C1287   1.412       .  A
C1287      C1288   1.397       .  A
C1287      S1291   1.804       .  S
C1288      H1292   1.084       .  S
S1289      H1294   1.407       .  S
S1291      H1295   1.407   1_455  S
C1297      C1298   1.401       .  A
C1297      C1302   1.397       .  A
C1297      H1307   1.085       .  S
C1298      C1299   1.415       .  A
C1298      C1303   1.478       .  S
C1299      C1300   1.400       .  A
C1299      S1304   1.805       .  S
C1300      C1301   1.401       .  A
C1300      H1305   1.085       .  S
C1301      C1302   1.413       .  A
C1302      S1306   1.804       .  S
C1303      C1308   1.410       .  A
C1303      C1312   1.400       .  A
S1304      H1320   1.405       .  S
S1306      H1317   1.406       .  S
C1308      C1309   1.403       .  A
C1308      S1313   1.806       .  S
C1309      C1310   1.403       .  A
C1309      H1314   1.085   1_655  S
C1310      C1311   1.412       .  A
C1311      C1312   1.397       .  A
C1311      S1315   1.800       .  S
C1312      H1316   1.086       .  S
S1313      H1318   1.407   1_655  S
S1315      H1319   1.407       .  S
C1321      C1322   1.402       .  A
C1321      C1326   1.403       .  A
C1321      H1331   1.081       .  S
C1322      C1323   1.414       .  A
C1322      C1327   1.483       .  S
C1323      C1324   1.401       .  A
C1323      S1328   1.805       .  S
C1324      C1325   1.405       .  A
C1324      H1329   1.081       .  S
C1325      C1326   1.416       .  A
C1326      S1330   1.804       .  S
C1327      C1332   1.407       .  A
C1327      C1336   1.402       .  A
S1328      H1344   1.403       .  S
S1330      H1341   1.406       .  S
C1332      C1333   1.403       .  A
C1332      S1337   1.806       .  S
C1333      C1334   1.407       .  A
C1333      H1338   1.087       .  S
C1334      C1335   1.416       .  A
C1335      C1336   1.406       .  A
C1335      S1339   1.807       .  S
C1336      H1340   1.083       .  S
S1337      H1342   1.407       .  S
S1339      H1343   1.407       .  S
C1345      C1346   1.402       .  A
C1345      C1350   1.400       .  A
C1345      H1355   1.084       .  S
C1346      C1347   1.414   1_655  A
C1346      C1351   1.482       .  S
C1347      C1348   1.399       .  A
C1347      S1352   1.804       .  S
C1348      C1349   1.403   1_455  A
C1348      H1353   1.085       .  S
C1349      C1350   1.415       .  A
C1350      S1354   1.803       .  S
C1351      C1356   1.411       .  A
C1351      C1360   1.402       .  A
S1352      H1368   1.406       .  S
S1354      H1365   1.406       .  S
C1356      C1357   1.405       .  A
C1356      S1361   1.806       .  S
C1357      C1358   1.404       .  A
C1357      H1362   1.082       .  S
C1358      C1359   1.412       .  A
C1359      C1360   1.397       .  A
C1359      S1363   1.803       .  S
C1360      H1364   1.083       .  S
S1361      H1366   1.407       .  S
S1363      H1367   1.406       .  S
C1369      C1370   1.405       .  A
C1369      C1374   1.404       .  A
C1369      H1379   1.084       .  S
C1370      C1371   1.412       .  A
C1370      C1375   1.482       .  S
C1371      C1372   1.395       .  A
C1371      S1376   1.805   1_565  S
C1372      C1373   1.402       .  A
C1372      H1377   1.085       .  S
C1373      C1374   1.414       .  A
C1374      S1378   1.803       .  S
C1375      C1380   1.411       .  A
C1375      C1384   1.398       .  A
S1376      H1392   1.406       .  S
S1378      H1389   1.406       .  S
C1380      C1381   1.409       .  A
C1380      S1385   1.805       .  S
C1381      C1382   1.406       .  A
C1381      H1386   1.083       .  S
C1382      C1383   1.418       .  A
C1383      C1384   1.397       .  A
C1383      S1387   1.811   1_565  S
C1384      H1388   1.085       .  S
S1385      H1390   1.407       .  S
S1387      H1391   1.406       .  S
C1393      C1394   1.403       .  A
C1393      C1398   1.403       .  A
C1393      H1403   1.083       .  S
C1394      C1395   1.413       .  A
C1394      C1399   1.485       .  S
C1395      C1396   1.399       .  A
C1395      S1400   1.804       .  S
C1396      C1397   1.404       .  A
C1396      H1401   1.083       .  S
C1397      C1398   1.416       .  A
C1398      S1402   1.803       .  S
C1399      C1404   1.410       .  A
C1399      C1408   1.402       .  A
S1400      H1416   1.406       .  S
S1402      H1413   1.407       .  S
C1404      C1405   1.403       .  A
C1404      S1409   1.808       .  S
C1405      C1406   1.405       .  A
C1405      H1410   1.083       .  S
C1406      C1407   1.418       .  A
C1407      C1408   1.403       .  A
C1407      S1411   1.804       .  S
C1408      H1412   1.085       .  S
S1409      H1414   1.407       .  S
S1411      H1415   1.407       .  S
C1417      C1418   1.402       .  A
C1417      C1422   1.403       .  A
C1417      H1427   1.083       .  S
C1418      C1419   1.411       .  A
C1418      C1423   1.486       .  S
C1419      C1420   1.401       .  A
C1419      S1424   1.804       .  S
C1420      C1421   1.409       .  A
C1420      H1425   1.083       .  S
C1421      C1422   1.420       .  A
C1422      S1426   1.803       .  S
C1423      C1428   1.411       .  A
C1423      C1432   1.402       .  A
S1424      H1440   1.405       .  S
S1426      H1437   1.408       .  S
C1428      C1429   1.405       .  A
C1428      S1433   1.807       .  S
C1429      C1430   1.404       .  A
C1429      H1434   1.084       .  S
C1430      C1431   1.417       .  A
C1431      C1432   1.402       .  A
C1431      S1435   1.804       .  S
C1432      H1436   1.086       .  S
S1433      H1438   1.407       .  S
S1435      H1439   1.407       .  S
C1441      C1442   1.404   1_655  A
C1441      C1446   1.401       .  A
C1441      H1451   1.083       .  S
C1442      C1443   1.416       .  A
C1442      C1447   1.492       .  S
C1443      C1444   1.403       .  A
C1443      S1448   1.804       .  S
C1444      C1445   1.405       .  A
C1444      H1449   1.083       .  S
C1445      C1446   1.417   1_455  A
C1446      S1450   1.804       .  S
C1447      C1452   1.414       .  A
C1447      C1456   1.404       .  A
S1448      H1464   1.407       .  S
S1450      H1461   1.407       .  S
C1452      C1453   1.407       .  A
C1452      S1457   1.806       .  S
C1453      C1454   1.405   1_455  A
C1453      H1458   1.081       .  S
C1454      C1455   1.413       .  A
C1455      C1456   1.400   1_655  A
C1455      S1459   1.803       .  S
C1456      H1460   1.082   1_455  S
S1457      H1462   1.407       .  S
S1459      H1463   1.406       .  S
C1465      C1466   1.404       .  A
C1465      C1470   1.401       .  A
C1465      H1475   1.083       .  S
C1466      C1467   1.413       .  A
C1466      C1471   1.484       .  S
C1467      C1468   1.402       .  A
C1467      S1472   1.804       .  S
C1468      C1469   1.405       .  A
C1468      H1473   1.084       .  S
C1469      C1470   1.413       .  A
C1470      S1474   1.804       .  S
C1471      C1476   1.409       .  A
C1471      C1480   1.400       .  A
S1472      H1488   1.405       .  S
S1474      H1485   1.406       .  S
C1476      C1477   1.407       .  A
C1476      S1481   1.806       .  S
C1477      C1478   1.408       .  A
C1477      H1482   1.084       .  S
C1478      C1479   1.418       .  A
C1479      C1480   1.400       .  A
C1479      S1483   1.802       .  S
C1480      H1484   1.085       .  S
S1481      H1486   1.407       .  S
S1483      H1487   1.407       .  S
C1489      C1490   1.402       .  A
C1489      C1494   1.404       .  A
C1489      H1499   1.085       .  S
C1490      C1491   1.413       .  A
C1490      C1495   1.491       .  S
C1491      C1492   1.405       .  A
C1491      S1496   1.803       .  S
C1492      C1493   1.409       .  A
C1492      H1497   1.084       .  S
C1493      C1494   1.420       .  A
C1494      S1498   1.802       .  S
C1495      C1500   1.410       .  A
C1495      C1504   1.402       .  A
S1496      H1512   1.405       .  S
S1498      H1509   1.408       .  S
C1500      C1501   1.409       .  A
C1500      S1505   1.805       .  S
C1501      C1502   1.408       .  A
C1501      H1506   1.083       .  S
C1502      C1503   1.418       .  A
C1503      C1504   1.403       .  A
C1503      S1507   1.804       .  S
C1504      H1508   1.084       .  S
S1505      H1510   1.407       .  S
S1507      H1511   1.406       .  S
C1513      C1514   1.402       .  A
C1513      C1518   1.399       .  A
C1513      H1523   1.085       .  S
C1514      C1515   1.416   1_565  A
C1514      C1519   1.487       .  S
C1515      C1516   1.402       .  A
C1515      S1520   1.804       .  S
C1516      C1517   1.403       .  A
C1516      H1521   1.085       .  S
C1517      C1518   1.417   1_545  A
C1518      S1522   1.805       .  S
C1519      C1524   1.413       .  A
C1519      C1528   1.403       .  A
S1520      H1536   1.406   1_545  S
S1522      H1533   1.406   1_565  S
C1524      C1525   1.404       .  A
C1524      S1529   1.806       .  S
C1525      C1526   1.402       .  A
C1525      H1530   1.084       .  S
C1526      C1527   1.414       .  A
C1527      C1528   1.399       .  A
C1527      S1531   1.805   1_565  S
C1528      H1532   1.085   1_565  S
S1529      H1534   1.407       .  S
S1531      H1535   1.406   1_545  S
C1537      C1538   1.404       .  A
C1537      C1542   1.402       .  A
C1537      H1547   1.083       .  S
C1538      C1539   1.410       .  A
C1538      C1543   1.483       .  S
C1539      C1540   1.399       .  A
C1539      S1544   1.803       .  S
C1540      C1541   1.406       .  A
C1540      H1545   1.083       .  S
C1541      C1542   1.415       .  A
C1542      S1546   1.803       .  S
C1543      C1548   1.408       .  A
C1543      C1552   1.404       .  A
S1544      H1560   1.406       .  S
S1546      H1557   1.407       .  S
C1548      C1549   1.402       .  A
C1548      S1553   1.806       .  S
C1549      C1550   1.405       .  A
C1549      H1554   1.082       .  S
C1550      C1551   1.413       .  A
C1551      C1552   1.402       .  A
C1551      S1555   1.804       .  S
C1552      H1556   1.083       .  S
S1553      H1558   1.407       .  S
S1555      H1559   1.406       .  S
C1561      C1562   1.402       .  A
C1561      C1566   1.399       .  A
C1561      H1571   1.083       .  S
C1562      C1563   1.413       .  A
C1562      C1567   1.486       .  S
C1563      C1564   1.403       .  A
C1563      S1568   1.804       .  S
C1564      C1565   1.406       .  A
C1564      H1569   1.082       .  S
C1565      C1566   1.418       .  A
C1566      S1570   1.805       .  S
C1567      C1572   1.411       .  A
C1567      C1576   1.400       .  A
S1568      H1584   1.406       .  S
S1570      H1581   1.407       .  S
C1572      C1573   1.406       .  A
C1572      S1577   1.806       .  S
C1573      C1574   1.407       .  A
C1573      H1578   1.081       .  S
C1574      C1575   1.420       .  A
C1575      C1576   1.403       .  A
C1575      S1579   1.809       .  S
C1576      H1580   1.081       .  S
S1577      H1582   1.407       .  S
S1579      H1583   1.406       .  S
C1585      C1586   1.403       .  A
C1585      C1590   1.404       .  A
C1585      H1595   1.085       .  S
C1586      C1587   1.412       .  A
C1586      C1591   1.490       .  S
C1587      C1588   1.404       .  A
C1587      S1592   1.803       .  S
C1588      C1589   1.407       .  A
C1588      H1593   1.084       .  S
C1589      C1590   1.416       .  A
C1590      S1594   1.802       .  S
C1591      C1596   1.410       .  A
C1591      C1600   1.402       .  A
S1592      H1608   1.405       .  S
S1594      H1605   1.407       .  S
C1596      C1597   1.407       .  A
C1596      S1601   1.805       .  S
C1597      C1598   1.407       .  A
C1597      H1602   1.084       .  S
C1598      C1599   1.417       .  A
C1599      C1600   1.403       .  A
C1599      S1603   1.804       .  S
C1600      H1604   1.085       .  S
S1601      H1606   1.407       .  S
S1603      H1607   1.406       .  S
C1609      C1610   1.404       .  A
C1609      C1614   1.407       .  A
C1609      H1619   1.085       .  S
C1610      C1611   1.411       .  A
C1610      C1615   1.488       .  S
C1611      C1612   1.398       .  A
C1611      S1616   1.805       .  S
C1612      C1613   1.407       .  A
C1612      H1617   1.084   1_565  S
C1613      C1614   1.419       .  A
C1614      S1618   1.802       .  S
C1615      C1620   1.410       .  A
C1615      C1624   1.404       .  A
S1616      H1632   1.406       .  S
S1618      H1629   1.408       .  S
C1620      C1621   1.406       .  A
C1620      S1625   1.806       .  S
C1621      C1622   1.407       .  A
C1621      H1626   1.083       .  S
C1622      C1623   1.414       .  A
C1623      C1624   1.401       .  A
C1623      S1627   1.804   1_565  S
C1624      H1628   1.083   1_565  S
S1625      H1630   1.407       .  S
S1627      H1631   1.406   1_545  S
C1633      C1634   1.402       .  A
C1633      C1638   1.403   1_565  A
C1633      H1643   1.085       .  S
C1634      C1635   1.408       .  A
C1634      C1639   1.482       .  S
C1635      C1636   1.396       .  A
C1635      S1640   1.804       .  S
C1636      C1637   1.411   1_565  A
C1636      H1641   1.085       .  S
C1637      C1638   1.421       .  A
C1638      S1642   1.800       .  S
C1639      C1644   1.410       .  A
C1639      C1648   1.401       .  A
S1640      H1656   1.406       .  S
S1642      H1653   1.408       .  S
C1644      C1645   1.407       .  A
C1644      S1649   1.805   1_565  S
C1645      C1646   1.405       .  A
C1645      H1650   1.082       .  S
C1646      C1647   1.414       .  A
C1647      C1648   1.396       .  A
C1647      S1651   1.804       .  S
C1648      H1652   1.083       .  S
S1649      H1654   1.407       .  S
S1651      H1655   1.406       .  S
C1657      C1658   1.402       .  A
C1657      C1662   1.400       .  A
C1657      H1667   1.084       .  S
C1658      C1659   1.411       .  A
C1658      C1663   1.481       .  S
C1659      C1660   1.400       .  A
C1659      S1664   1.803       .  S
C1660      C1661   1.406       .  A
C1660      H1665   1.084       .  S
C1661      C1662   1.414       .  A
C1662      S1666   1.799       .  S
C1663      C1668   1.408       .  A
C1663      C1672   1.403       .  A
S1664      H1680   1.405       .  S
S1666      H1677   1.404       .  S
C1668      C1669   1.404       .  A
C1668      S1673   1.806       .  S
C1669      C1670   1.406       .  A
C1669      H1674   1.081       .  S
C1670      C1671   1.413       .  A
C1671      C1672   1.400       .  A
C1671      S1675   1.804       .  S
C1672      H1676   1.082       .  S
S1673      H1678   1.407       .  S
S1675      H1679   1.406       .  S
C1681      C1682   1.404       .  A
C1681      C1686   1.405       .  A
C1681      H1691   1.085       .  S
C1682      C1683   1.411       .  A
C1682      C1687   1.487       .  S
C1683      C1684   1.399       .  A
C1683      S1688   1.804       .  S
C1684      C1685   1.407       .  A
C1684      H1689   1.085       .  S
C1685      C1686   1.418       .  A
C1686      S1690   1.802       .  S
C1687      C1692   1.410       .  A
C1687      C1696   1.402       .  A
S1688      H1704   1.406       .  S
S1690      H1701   1.407       .  S
C1692      C1693   1.407       .  A
C1692      S1697   1.806       .  S
C1693      C1694   1.407       .  A
C1693      H1698   1.083       .  S
C1694      C1695   1.416       .  A
C1695      C1696   1.401       .  A
C1695      S1699   1.804       .  S
C1696      H1700   1.085       .  S
S1697      H1702   1.407       .  S
S1699      H1703   1.407       .  S
C1705      C1706   1.401       .  A
C1705      C1710   1.398       .  A
C1705      H1715   1.085       .  S
C1706      C1707   1.412       .  A
C1706      C1711   1.477       .  S
C1707      C1708   1.399       .  A
C1707      S1712   1.804       .  S
C1708      C1709   1.403       .  A
C1708      H1713   1.085       .  S
C1709      C1710   1.413       .  A
C1710      S1714   1.801       .  S
C1711      C1716   1.407       .  A
C1711      C1720   1.403       .  A
S1712      H1728   1.406       .  S
S1714      H1725   1.407       .  S
C1716      C1717   1.401       .  A
C1716      S1721   1.806       .  S
C1717      C1718   1.404       .  A
C1717      H1722   1.082       .  S
C1718      C1719   1.413       .  A
C1719      C1720   1.400       .  A
C1719      S1723   1.804       .  S
C1720      H1724   1.083       .  S
S1721      H1726   1.407       .  S
S1723      H1727   1.405       .  S
C1729      C1730   1.402       .  A
C1729      C1734   1.400       .  A
C1729      H1739   1.084       .  S
C1730      C1731   1.412       .  A
C1730      C1735   1.485       .  S
C1731      C1732   1.400       .  A
C1731      S1736   1.805       .  S
C1732      C1733   1.409       .  A
C1732      H1737   1.083       .  S
C1733      C1734   1.419       .  A
C1734      S1738   1.800       .  S
C1735      C1740   1.409       .  A
C1735      C1744   1.405       .  A
S1736      H1752   1.406       .  S
S1738      H1749   1.408       .  S
C1740      C1741   1.401       .  A
C1740      S1745   1.808       .  S
C1741      C1742   1.405       .  A
C1741      H1746   1.082       .  S
C1742      C1743   1.414       .  A
C1743      C1744   1.404       .  A
C1743      S1747   1.803       .  S
C1744      H1748   1.083       .  S
S1745      H1750   1.407       .  S
S1747      H1751   1.406       .  S
C1753      C1754   1.403       .  A
C1753      C1758   1.403       .  A
C1753      H1763   1.086       .  S
C1754      C1755   1.407       .  A
C1754      C1759   1.480       .  S
C1755      C1756   1.395       .  A
C1755      S1760   1.805       .  S
C1756      C1757   1.410       .  A
C1756      H1761   1.085       .  S
C1757      C1758   1.421       .  A
C1758      S1762   1.802       .  S
C1759      C1764   1.409       .  A
C1759      C1768   1.403       .  A
S1760      H1776   1.406       .  S
S1762      H1773   1.407       .  S
C1764      C1765   1.401       .  A
C1764      S1769   1.807       .  S
C1765      C1766   1.404       .  A
C1765      H1770   1.083       .  S
C1766      C1767   1.414       .  A
C1767      C1768   1.400       .  A
C1767      S1771   1.804       .  S
C1768      H1772   1.085       .  S
S1769      H1774   1.407       .  S
S1771      H1775   1.406   1_565  S
C1777      C1778   1.401       .  A
C1777      C1782   1.398       .  A
C1777      H1787   1.085       .  S
C1778      C1779   1.417       .  A
C1778      C1783   1.493       .  S
C1779      C1780   1.408       .  A
C1779      S1784   1.803       .  S
C1780      C1781   1.406       .  A
C1780      H1785   1.084       .  S
C1781      C1782   1.419       .  A
C1782      S1786   1.803       .  S
C1783      C1788   1.412       .  A
C1783      C1792   1.403       .  A
S1784      H1800   1.406       .  S
S1786      H1797   1.404       .  S
C1788      C1789   1.406       .  A
C1788      S1793   1.808       .  S
C1789      C1790   1.407       .  A
C1789      H1794   1.081       .  S
C1790      C1791   1.420       .  A
C1791      C1792   1.404       .  A
C1791      S1795   1.804       .  S
C1792      H1796   1.082       .  S
S1793      H1798   1.407       .  S
S1795      H1799   1.407       .  S
C1801      C1802   1.403       .  A
C1801      C1806   1.401       .  A
C1801      H1811   1.082       .  S
C1802      C1803   1.410       .  A
C1802      C1807   1.478       .  S
C1803      C1804   1.399       .  A
C1803      S1808   1.807       .  S
C1804      C1805   1.411       .  A
C1804      H1809   1.083       .  S
C1805      C1806   1.415       .  A
C1806      S1810   1.799       .  S
C1807      C1812   1.409       .  A
C1807      C1816   1.400       .  A
S1808      H1824   1.403       .  S
S1810      H1821   1.408       .  S
C1812      C1813   1.405       .  A
C1812      S1817   1.805       .  S
C1813      C1814   1.404       .  A
C1813      H1818   1.085       .  S
C1814      C1815   1.413       .  A
C1815      C1816   1.398       .  A
C1815      S1819   1.804       .  S
C1816      H1820   1.085       .  S
S1817      H1822   1.407       .  S
S1819      H1823   1.406       .  S
C1825      C1826   1.402       .  A
C1825      C1830   1.397       .  A
C1825      H1835   1.083       .  S
C1826      C1827   1.410       .  A
C1826      C1831   1.478       .  S
C1827      C1828   1.399       .  A
C1827      S1832   1.804       .  S
C1828      C1829   1.409       .  A
C1828      H1833   1.083       .  S
C1829      C1830   1.415       .  A
C1830      S1834   1.803       .  S
C1831      C1836   1.408       .  A
C1831      C1840   1.403       .  A
S1832      H1848   1.406       .  S
S1834      H1845   1.408       .  S
C1836      C1837   1.401       .  A
C1836      S1841   1.807       .  S
C1837      C1838   1.404       .  A
C1837      H1842   1.080       .  S
C1838      C1839   1.414       .  A
C1839      C1840   1.399       .  A
C1839      S1843   1.804       .  S
C1840      H1844   1.082       .  S
S1841      H1846   1.407       .  S
S1843      H1847   1.406       .  S
C1849      C1850   1.403   1_556  A
C1849      C1854   1.399       .  A
C1849      H1859   1.084       .  S
C1850      C1851   1.414       .  A
C1850      C1855   1.479       .  S
C1851      C1852   1.398   1_554  A
C1851      S1856   1.805       .  S
C1852      C1853   1.401       .  A
C1852      H1857   1.085       .  S
C1853      C1854   1.412       .  A
C1854      S1858   1.804       .  S
C1855      C1860   1.411       .  A
C1855      C1864   1.401       .  A
S1856      H1872   1.406       .  S
S1858      H1869   1.406       .  S
C1860      C1861   1.403       .  A
C1860      S1865   1.807       .  S
C1861      C1862   1.402       .  A
C1861      H1866   1.083       .  S
C1862      C1863   1.415       .  A
C1863      C1864   1.397       .  A
C1863      S1867   1.804       .  S
C1864      H1868   1.085       .  S
S1865      H1870   1.407       .  S
S1867      H1871   1.406       .  S
C1873      C1874   1.404       .  A
C1873      C1878   1.404       .  A
C1873      H1883   1.085       .  S
C1874      C1875   1.411       .  A
C1874      C1879   1.484       .  S
C1875      C1876   1.399       .  A
C1875      S1880   1.804       .  S
C1876      C1877   1.406       .  A
C1876      H1881   1.085       .  S
C1877      C1878   1.413       .  A
C1878      S1882   1.807       .  S
C1879      C1884   1.409       .  A
C1879      C1888   1.403       .  A
S1880      H1896   1.406       .  S
S1882      H1893   1.407       .  S
C1884      C1885   1.400       .  A
C1884      S1889   1.809       .  S
C1885      C1886   1.408       .  A
C1885      H1890   1.083       .  S
C1886      C1887   1.418       .  A
C1887      C1888   1.403       .  A
C1887      S1891   1.803       .  S
C1888      H1892   1.085       .  S
S1889      H1894   1.407       .  S
S1891      H1895   1.408       .  S
C1897      C1898   1.404       .  A
C1897      C1902   1.402       .  A
C1897      H1907   1.086       .  S
C1898      C1899   1.413       .  A
C1898      C1903   1.488       .  S
C1899      C1900   1.402       .  A
C1899      S1904   1.804       .  S
C1900      C1901   1.406       .  A
C1900      H1905   1.086       .  S
C1901      C1902   1.415       .  A
C1902      S1906   1.803       .  S
C1903      C1908   1.411       .  A
C1903      C1912   1.402       .  A
S1904      H1920   1.406       .  S
S1906      H1917   1.406       .  S
C1908      C1909   1.407       .  A
C1908      S1913   1.807       .  S
C1909      C1910   1.406       .  A
C1909      H1914   1.083       .  S
C1910      C1911   1.416       .  A
C1911      C1912   1.401       .  A
C1911      S1915   1.803       .  S
C1912      H1916   1.085       .  S
S1913      H1918   1.407       .  S
S1915      H1919   1.407       .  S
C1921      C1922   1.401       .  A
C1921      C1926   1.398       .  A
C1921      H1931   1.085       .  S
C1922      C1923   1.413       .  A
C1922      C1927   1.475       .  S
C1923      C1924   1.396       .  A
C1923      S1928   1.805       .  S
C1924      C1925   1.402       .  A
C1924      H1929   1.086       .  S
C1925      C1926   1.414       .  A
C1926      S1930   1.804       .  S
C1927      C1932   1.407       .  A
C1927      C1936   1.400       .  A
S1928      H1944   1.406       .  S
S1930      H1941   1.406       .  S
C1932      C1933   1.399       .  A
C1932      S1937   1.809       .  S
C1933      C1934   1.409       .  A
C1933      H1938   1.081       .  S
C1934      C1935   1.419       .  A
C1935      C1936   1.399       .  A
C1935      S1939   1.804       .  S
C1936      H1940   1.083       .  S
S1937      H1942   1.407       .  S
S1939      H1943   1.407       .  S
C1945      C1946   1.398       .  A
C1945      C1950   1.397       .  A
C1945      H1955   1.086       .  S
C1946      C1947   1.410       .  A
C1946      C1951   1.475       .  S
C1947      C1948   1.399       .  A
C1947      S1952   1.804       .  S
C1948      C1949   1.407       .  A
C1948      H1953   1.085       .  S
C1949      C1950   1.419       .  A
C1950      S1954   1.803       .  S
C1951      C1956   1.407       .  A
C1951      C1960   1.401       .  A
S1952      H1968   1.405       .  S
S1954      H1965   1.408       .  S
C1956      C1957   1.400       .  A
C1956      S1961   1.806       .  S
C1957      C1958   1.405       .  A
C1957      H1962   1.085       .  S
C1958      C1959   1.415       .  A
C1959      C1960   1.399       .  A
C1959      S1963   1.804       .  S
C1960      H1964   1.086       .  S
S1961      H1966   1.407       .  S
S1963      H1967   1.406       .  S
C1969      C1970   1.402       .  A
C1969      C1974   1.401       .  A
C1969      H1979   1.083       .  S
C1970      C1971   1.412       .  A
C1970      C1975   1.483       .  S
C1971      C1972   1.400       .  A
C1971      S1976   1.804       .  S
C1972      C1973   1.404       .  A
C1972      H1977   1.083       .  S
C1973      C1974   1.417       .  A
C1974      S1978   1.804       .  S
C1975      C1980   1.409       .  A
C1975      C1984   1.403       .  A
S1976      H1992   1.406       .  S
S1978      H1989   1.407       .  S
C1980      C1981   1.404   1_556  A
C1980      S1985   1.806       .  S
C1981      C1982   1.405       .  A
C1981      H1986   1.083       .  S
C1982      C1983   1.413   1_554  A
C1983      C1984   1.401       .  A
C1983      S1987   1.803       .  S
C1984      H1988   1.084       .  S
S1985      H1990   1.407   1_556  S
S1987      H1991   1.406   1_556  S
C1993      C1994   1.398       .  A
C1993      C1998   1.400       .  A
C1993      H2003   1.083       .  S
C1994      C1995   1.412       .  A
C1994      C1999   1.478       .  S
C1995      C1996   1.402       .  A
C1995      S2000   1.804       .  S
C1996      C1997   1.405       .  A
C1996      H2001   1.084       .  S
C1997      C1998   1.421       .  A
C1998      S2002   1.812       .  S
C1999      C2004   1.408       .  A
C1999      C2008   1.400       .  A
S2000      H2016   1.404       .  S
S2002      H2013   1.406       .  S
C2004      C2005   1.405       .  A
C2004      S2009   1.805       .  S
C2005      C2006   1.406       .  A
C2005      H2010   1.083       .  S
C2006      C2007   1.415       .  A
C2007      C2008   1.401       .  A
C2007      S2011   1.808       .  S
C2008      H2012   1.083       .  S
S2009      H2014   1.407       .  S
S2011      H2015   1.407       .  S
C2017      C2018   1.401       .  A
C2017      C2022   1.404       .  A
C2017      H2027   1.084       .  S
C2018      C2019   1.410       .  A
C2018      C2023   1.486       .  S
C2019      C2020   1.399       .  A
C2019      S2024   1.805       .  S
C2020      C2021   1.410       .  A
C2020      H2025   1.083       .  S
C2021      C2022   1.422       .  A
C2022      S2026   1.800       .  S
C2023      C2028   1.411       .  A
C2023      C2032   1.401       .  A
S2024      H2040   1.405       .  S
S2026      H2037   1.406       .  S
C2028      C2029   1.405       .  A
C2028      S2033   1.807       .  S
C2029      C2030   1.406       .  A
C2029      H2034   1.081       .  S
C2030      C2031   1.418       .  A
C2031      C2032   1.403       .  A
C2031      S2035   1.804       .  S
C2032      H2036   1.082       .  S
S2033      H2038   1.407       .  S
S2035      H2039   1.406       .  S
C2041      C2042   1.401   1_455  A
C2041      C2046   1.402       .  A
C2041      H2051   1.085       .  S
C2042      C2043   1.410       .  A
C2042      C2047   1.484       .  S
C2043      C2044   1.400       .  A
C2043      S2048   1.804       .  S
C2044      C2045   1.411       .  A
C2044      H2049   1.084       .  S
C2045      C2046   1.421   1_655  A
C2046      S2050   1.800       .  S
C2047      C2052   1.411       .  A
C2047      C2056   1.402       .  A
S2048      H2064   1.406       .  S
S2050      H2061   1.407       .  S
C2052      C2053   1.406       .  A
C2052      S2057   1.806       .  S
C2053      C2054   1.405       .  A
C2053      H2058   1.081       .  S
C2054      C2055   1.414       .  A
C2055      C2056   1.399       .  A
C2055      S2059   1.804   1_655  S
C2056      H2060   1.082       .  S
S2057      H2062   1.407       .  S
S2059      H2063   1.406   1_455  S
C2065      C2066   1.398       .  A
C2065      C2070   1.397       .  A
C2065      H2075   1.084       .  S
C2066      C2067   1.413   1_455  A
C2066      C2071   1.478       .  S
C2067      C2068   1.402       .  A
C2067      S2072   1.804       .  S
C2068      C2069   1.406       .  A
C2068      H2073   1.083       .  S
C2069      C2070   1.418   1_655  A
C2070      S2074   1.799       .  S
C2071      C2076   1.408   1_455  A
C2071      C2080   1.403       .  A
S2072      H2088   1.405       .  S
S2074      H2085   1.407       .  S
C2076      C2077   1.399   1_655  A
C2076      S2081   1.807       .  S
C2077      C2078   1.403       .  A
C2077      H2082   1.083   1_455  S
C2078      C2079   1.412       .  A
C2079      C2080   1.406       .  A
C2079      S2083   1.806       .  S
C2080      H2084   1.082       .  S
S2081      H2086   1.407       .  S
S2083      H2087   1.407       .  S
C2089      C2090   1.402       .  A
C2089      C2094   1.399       .  A
C2089      H2099   1.085       .  S
C2090      C2091   1.413       .  A
C2090      C2095   1.480       .  S
C2091      C2092   1.401       .  A
C2091      S2096   1.805       .  S
C2092      C2093   1.402       .  A
C2092      H2097   1.085       .  S
C2093      C2094   1.413       .  A
C2094      S2098   1.806       .  S
C2095      C2100   1.407       .  A
C2095      C2104   1.403       .  A
S2096      H2112   1.405       .  S
S2098      H2109   1.402       .  S
C2100      C2101   1.399       .  A
C2100      S2105   1.808       .  S
C2101      C2102   1.408       .  A
C2101      H2106   1.081       .  S
C2102      C2103   1.416       .  A
C2103      C2104   1.403       .  A
C2103      S2107   1.802       .  S
C2104      H2108   1.083       .  S
S2105      H2110   1.407       .  S
S2107      H2111   1.408       .  S
C2113      C2114   1.405       .  A
C2113      C2118   1.401       .  A
C2113      H2123   1.083       .  S
C2114      C2115   1.415       .  A
C2114      C2119   1.496       .  S
C2115      C2116   1.404       .  A
C2115      S2120   1.804       .  S
C2116      C2117   1.408       .  A
C2116      H2121   1.083       .  S
C2117      C2118   1.419       .  A
C2118      S2122   1.805       .  S
C2119      C2124   1.413       .  A
C2119      C2128   1.407       .  A
S2120      H2136   1.406       .  S
S2122      H2133   1.407       .  S
C2124      C2125   1.404       .  A
C2124      S2129   1.809       .  S
C2125      C2126   1.407       .  A
C2125      H2130   1.081       .  S
C2126      C2127   1.415       .  A
C2127      C2128   1.405       .  A
C2127      S2131   1.801       .  S
C2128      H2132   1.082       .  S
S2129      H2134   1.407       .  S
S2131      H2135   1.407       .  S
C2137      C2138   1.403       .  A
C2137      C2142   1.403       .  A
C2137      H2147   1.084       .  S
C2138      C2139   1.414       .  A
C2138      C2143   1.489       .  S
C2139      C2140   1.401       .  A
C2139      S2144   1.804       .  S
C2140      C2141   1.405       .  A
C2140      H2145   1.084       .  S
C2141      C2142   1.419       .  A
C2142      S2146   1.804       .  S
C2143      C2148   1.410       .  A
C2143      C2152   1.406       .  A
S2144      H2160   1.406       .  S
S2146      H2157   1.407       .  S
C2148      C2149   1.403       .  A
C2148      S2153   1.807       .  S
C2149      C2150   1.406       .  A
C2149      H2154   1.082       .  S
C2150      C2151   1.414       .  A
C2151      C2152   1.404       .  A
C2151      S2155   1.803       .  S
C2152      H2156   1.083       .  S
S2153      H2158   1.407       .  S
S2155      H2159   1.406       .  S
C2161      C2162   1.401       .  A
C2161      C2166   1.401       .  A
C2161      H2171   1.083       .  S
C2162      C2163   1.414       .  A
C2162      C2167   1.477       .  S
C2163      C2164   1.398       .  A
C2163      S2168   1.806       .  S
C2164      C2165   1.402       .  A
C2164      H2169   1.083       .  S
C2165      C2166   1.416       .  A
C2166      S2170   1.804       .  S
C2167      C2172   1.405       .  A
C2167      C2176   1.402       .  A
S2168      H2184   1.404       .  S
S2170      H2181   1.406       .  S
C2172      C2173   1.399       .  A
C2172      S2177   1.807       .  S
C2173      C2174   1.408       .  A
C2173      H2178   1.083       .  S
C2174      C2175   1.418       .  A
C2175      C2176   1.401       .  A
C2175      S2179   1.801       .  S
C2176      H2180   1.084       .  S
S2177      H2182   1.407       .  S
S2179      H2183   1.407       .  S
C2185      C2186   1.398       .  A
C2185      C2190   1.396       .  A
C2185      H2195   1.085       .  S
C2186      C2187   1.415       .  A
C2186      C2191   1.484       .  S
C2187      C2188   1.405       .  A
C2187      S2192   1.804       .  S
C2188      C2189   1.405       .  A
C2188      H2193   1.084       .  S
C2189      C2190   1.420       .  A
C2190      S2194   1.802       .  S
C2191      C2196   1.410       .  A
C2191      C2200   1.402       .  A
S2192      H2208   1.405       .  S
S2194      H2205   1.405       .  S
C2196      C2197   1.406       .  A
C2196      S2201   1.806       .  S
C2197      C2198   1.405       .  A
C2197      H2202   1.084       .  S
C2198      C2199   1.414       .  A
C2199      C2200   1.399       .  A
C2199      S2203   1.805       .  S
C2200      H2204   1.085       .  S
S2201      H2206   1.407       .  S
S2203      H2207   1.406       .  S
C2209      C2210   1.401       .  A
C2209      C2214   1.400       .  A
C2209      H2219   1.086       .  S
C2210      C2211   1.413       .  A
C2210      C2215   1.481       .  S
C2211      C2212   1.399       .  A
C2211      S2216   1.804       .  S
C2212      C2213   1.402       .  A
C2212      H2217   1.085       .  S
C2213      C2214   1.416       .  A
C2214      S2218   1.803       .  S
C2215      C2220   1.409       .  A
C2215      C2224   1.400       .  A
S2216      H2232   1.406       .  S
S2218      H2229   1.406       .  S
C2220      C2221   1.405       .  A
C2220      S2225   1.806       .  S
C2221      C2222   1.406       .  A
C2221      H2226   1.083       .  S
C2222      C2223   1.417       .  A
C2223      C2224   1.398       .  A
C2223      S2227   1.803       .  S
C2224      H2228   1.085       .  S
S2225      H2230   1.407       .  S
S2227      H2231   1.407       .  S
C2233      C2234   1.402       .  A
C2233      C2238   1.398       .  A
C2233      H2243   1.084       .  S
C2234      C2235   1.414       .  A
C2234      C2239   1.481       .  S
C2235      C2236   1.402       .  A
C2235      S2240   1.805       .  S
C2236      C2237   1.405       .  A
C2236      H2241   1.084       .  S
C2237      C2238   1.414       .  A
C2238      S2242   1.803       .  S
C2239      C2244   1.409       .  A
C2239      C2248   1.402       .  A
S2240      H2256   1.405       .  S
S2242      H2253   1.407       .  S
C2244      C2245   1.404       .  A
C2244      S2249   1.807       .  S
C2245      C2246   1.408       .  A
C2245      H2250   1.083       .  S
C2246      C2247   1.415       .  A
C2247      C2248   1.400       .  A
C2247      S2251   1.803       .  S
C2248      H2252   1.084       .  S
S2249      H2254   1.407       .  S
S2251      H2255   1.407       .  S
C2257      C2258   1.404       .  A
C2257      C2262   1.399       .  A
C2257      H2267   1.084       .  S
C2258      C2259   1.416       .  A
C2258      C2263   1.489       .  S
C2259      C2260   1.402       .  A
C2259      S2264   1.803       .  S
C2260      C2261   1.403       .  A
C2260      H2265   1.085       .  S
C2261      C2262   1.412       .  A
C2262      S2266   1.804       .  S
C2263      C2268   1.412       .  A
C2263      C2272   1.401       .  A
S2264      H2280   1.406       .  S
S2266      H2277   1.406       .  S
C2268      C2269   1.406       .  A
C2268      S2273   1.807       .  S
C2269      C2270   1.407       .  A
C2269      H2274   1.081   1_565  S
C2270      C2271   1.419       .  A
C2271      C2272   1.399       .  A
C2271      S2275   1.802       .  S
C2272      H2276   1.083       .  S
S2273      H2278   1.407   1_565  S
S2275      H2279   1.406       .  S
C2281      C2282   1.407       .  A
C2281      C2286   1.406       .  A
C2281      H2291   1.085       .  S
C2282      C2283   1.414       .  A
C2282      C2287   1.491       .  S
C2283      C2284   1.398       .  A
C2283      S2288   1.804       .  S
C2284      C2285   1.403       .  A
C2284      H2289   1.085       .  S
C2285      C2286   1.413       .  A
C2286      S2290   1.803       .  S
C2287      C2292   1.412       .  A
C2287      C2296   1.403       .  A
S2288      H2304   1.406       .  S
S2290      H2301   1.406       .  S
C2292      C2293   1.409       .  A
C2292      S2297   1.806       .  S
C2293      C2294   1.408       .  A
C2293      H2298   1.083       .  S
C2294      C2295   1.416       .  A
C2295      C2296   1.399       .  A
C2295      S2299   1.804       .  S
C2296      H2300   1.084       .  S
S2297      H2302   1.407       .  S
S2299      H2303   1.407       .  S
C2305      C2306   1.408       .  A
C2305      C2310   1.406       .  A
C2305      H2315   1.082       .  S
C2306      C2307   1.415       .  A
C2306      C2311   1.491       .  S
C2307      C2308   1.395       .  A
C2307      S2312   1.805       .  S
C2308      C2309   1.402       .  A
C2308      H2313   1.083       .  S
C2309      C2310   1.413       .  A
C2310      S2314   1.800   1_565  S
C2311      C2316   1.413       .  A
C2311      C2320   1.403       .  A
S2312      H2328   1.407       .  S
S2314      H2325   1.405       .  S
C2316      C2317   1.408       .  A
C2316      S2321   1.806       .  S
C2317      C2318   1.408       .  A
C2317      H2322   1.081       .  S
C2318      C2319   1.417       .  A
C2319      C2320   1.396       .  A
C2319      S2323   1.805       .  S
C2320      H2324   1.082       .  S
S2321      H2326   1.407       .  S
S2323      H2327   1.407       .  S
C2329      C2330   1.403       .  A
C2329      C2334   1.401       .  A
C2329      H2339   1.085       .  S
C2330      C2331   1.414       .  A
C2330      C2335   1.484       .  S
C2331      C2332   1.400       .  A
C2331      S2336   1.804       .  S
C2332      C2333   1.400       .  A
C2332      H2337   1.085       .  S
C2333      C2334   1.414       .  A
C2334      S2338   1.805       .  S
C2335      C2340   1.411       .  A
C2335      C2344   1.401       .  A
S2336      H2352   1.406       .  S
S2338      H2349   1.405       .  S
C2340      C2341   1.405       .  A
C2340      S2345   1.807       .  S
C2341      C2342   1.405       .  A
C2341      H2346   1.083       .  S
C2342      C2343   1.417       .  A
C2343      C2344   1.402       .  A
C2343      S2347   1.809       .  S
C2344      H2348   1.083       .  S
S2345      H2350   1.407       .  S
S2347      H2351   1.406       .  S
C2353      C2354   1.402       .  A
C2353      C2358   1.401       .  A
C2353      H2363   1.085       .  S
C2354      C2355   1.415       .  A
C2354      C2359   1.483       .  S
C2355      C2356   1.401       .  A
C2355      S2360   1.806       .  S
C2356      C2357   1.403       .  A
C2356      H2361   1.085       .  S
C2357      C2358   1.415       .  A
C2358      S2362   1.804       .  S
C2359      C2364   1.406       .  A
C2359      C2368   1.402       .  A
S2360      H2376   1.405       .  S
S2362      H2373   1.406       .  S
C2364      C2365   1.402       .  A
C2364      S2369   1.807       .  S
C2365      C2366   1.411       .  A
C2365      H2370   1.082       .  S
C2366      C2367   1.419       .  A
C2367      C2368   1.403       .  A
C2367      S2371   1.799       .  S
C2368      H2372   1.083       .  S
S2369      H2374   1.407       .  S
S2371      H2375   1.408       .  S
C2377      C2378   1.402       .  A
C2377      C2382   1.409       .  A
C2377      H2387   1.084       .  S
C2378      C2379   1.408       .  A
C2378      C2383   1.484       .  S
C2379      C2380   1.396       .  A
C2379      S2384   1.805       .  S
C2380      C2381   1.410       .  A
C2380      H2385   1.084       .  S
C2381      C2382   1.422       .  A
C2382      S2386   1.808       .  S
C2383      C2388   1.411       .  A
C2383      C2392   1.402       .  A
S2384      H2400   1.405       .  S
S2386      H2397   1.406       .  S
C2388      C2389   1.404       .  A
C2388      S2393   1.807       .  S
C2389      C2390   1.405       .  A
C2389      H2394   1.081       .  S
C2390      C2391   1.416       .  A
C2391      C2392   1.403       .  A
C2391      S2395   1.804       .  S
C2392      H2396   1.082       .  S
S2393      H2398   1.407       .  S
S2395      H2399   1.406       .  S
C2401      C2402   1.402       .  A
C2401      C2406   1.400       .  A
C2401      H2411   1.081       .  S
C2402      C2403   1.410       .  A
C2402      C2407   1.482       .  S
C2403      C2404   1.400       .  A
C2403      S2408   1.804       .  S
C2404      C2405   1.408       .  A
C2404      H2409   1.081       .  S
C2405      C2406   1.418       .  A
C2406      S2410   1.801       .  S
C2407      C2412   1.408       .  A
C2407      C2416   1.403       .  A
S2408      H2424   1.406       .  S
S2410      H2421   1.403       .  S
C2412      C2413   1.402       .  A
C2412      S2417   1.807       .  S
C2413      C2414   1.407       .  A
C2413      H2418   1.083       .  S
C2414      C2415   1.415       .  A
C2415      C2416   1.399       .  A
C2415      S2419   1.804       .  S
C2416      H2420   1.085       .  S
S2417      H2422   1.407       .  S
S2419      H2423   1.407       .  S
C2425      C2426   1.403       .  A
C2425      C2430   1.394       .  A
C2425      H2435   1.081       .  S
C2426      C2427   1.415       .  A
C2426      C2431   1.486       .  S
C2427      C2428   1.400       .  A
C2427      S2432   1.804       .  S
C2428      C2429   1.406       .  A
C2428      H2433   1.082       .  S
C2429      C2430   1.415       .  A
C2430      S2434   1.805       .  S
C2431      C2436   1.413       .  A
C2431      C2440   1.405       .  A
S2432      H2448   1.406       .  S
S2434      H2445   1.407       .  S
C2436      C2437   1.398       .  A
C2436      S2441   1.810       .  S
C2437      C2438   1.404       .  A
C2437      H2442   1.084       .  S
C2438      C2439   1.415       .  A
C2439      C2440   1.401       .  A
C2439      S2443   1.806       .  S
C2440      H2444   1.084       .  S
S2441      H2446   1.407       .  S
S2443      H2447   1.400       .  S
C2449      C2450   1.404       .  A
C2449      C2454   1.401       .  A
C2449      H2459   1.084       .  S
C2450      C2451   1.413       .  A
C2450      C2455   1.486       .  S
C2451      C2452   1.401       .  A
C2451      S2456   1.804       .  S
C2452      C2453   1.405       .  A
C2452      H2457   1.084       .  S
C2453      C2454   1.416       .  A
C2454      S2458   1.804       .  S
C2455      C2460   1.409       .  A
C2455      C2464   1.401       .  A
S2456      H2472   1.406       .  S
S2458      H2469   1.406       .  S
C2460      C2461   1.405       .  A
C2460      S2465   1.806       .  S
C2461      C2462   1.408       .  A
C2461      H2466   1.083       .  S
C2462      C2463   1.420       .  A
C2463      C2464   1.398       .  A
C2463      S2467   1.803       .  S
C2464      H2468   1.085       .  S
S2465      H2470   1.407       .  S
S2467      H2471   1.408       .  S
C2473      C2474   1.405       .  A
C2473      C2478   1.403       .  A
C2473      H2483   1.085       .  S
C2474      C2475   1.411   1_565  A
C2474      C2479   1.487       .  S
C2475      C2476   1.397       .  A
C2475      S2480   1.805       .  S
C2476      C2477   1.407       .  A
C2476      H2481   1.083       .  S
C2477      C2478   1.418   1_545  A
C2478      S2482   1.802       .  S
C2479      C2484   1.412       .  A
C2479      C2488   1.402       .  A
S2480      H2496   1.406   1_545  S
S2482      H2493   1.408   1_565  S
C2484      C2485   1.407       .  A
C2484      S2489   1.807       .  S
C2485      C2486   1.405       .  A
C2485      H2490   1.084       .  S
C2486      C2487   1.415       .  A
C2487      C2488   1.397       .  A
C2487      S2491   1.804   1_565  S
C2488      H2492   1.085   1_565  S
S2489      H2494   1.407       .  S
S2491      H2495   1.407   1_545  S
C2497      C2498   1.401       .  A
C2497      C2502   1.403       .  A
C2497      H2507   1.083       .  S
C2498      C2499   1.410       .  A
C2498      C2503   1.480       .  S
C2499      C2500   1.396       .  A
C2499      S2504   1.805       .  S
C2500      C2501   1.409       .  A
C2500      H2505   1.082       .  S
C2501      C2502   1.421       .  A
C2502      S2506   1.799       .  S
C2503      C2508   1.411       .  A
C2503      C2512   1.402       .  A
S2504      H2520   1.406       .  S
S2506      H2517   1.408       .  S
C2508      C2509   1.402       .  A
C2508      S2513   1.807       .  S
C2509      C2510   1.402       .  A
C2509      H2514   1.083       .  S
C2510      C2511   1.413       .  A
C2511      C2512   1.400       .  A
C2511      S2515   1.804       .  S
C2512      H2516   1.084       .  S
S2513      H2518   1.407       .  S
S2515      H2519   1.407       .  S
C2521      C2522   1.402       .  A
C2521      C2526   1.400       .  A
C2521      H2531   1.083       .  S
C2522      C2523   1.413       .  A
C2522      C2527   1.483       .  S
C2523      C2524   1.402       .  A
C2523      S2528   1.804       .  S
C2524      C2525   1.404       .  A
C2524      H2529   1.083       .  S
C2525      C2526   1.414       .  A
C2526      S2530   1.804       .  S
C2527      C2532   1.409       .  A
C2527      C2536   1.397       .  A
S2528      H2544   1.406       .  S
S2530      H2541   1.406       .  S
C2532      C2533   1.408       .  A
C2532      S2537   1.806       .  S
C2533      C2534   1.409       .  A
C2533      H2538   1.084       .  S
C2534      C2535   1.423       .  A
C2535      C2536   1.396       .  A
C2535      S2539   1.801       .  S
C2536      H2540   1.087       .  S
S2537      H2542   1.407       .  S
S2539      H2543   1.406       .  S
C2545      C2546   1.405       .  A
C2545      C2550   1.403       .  A
C2545      H2555   1.082       .  S
C2546      C2547   1.413       .  A
C2546      C2551   1.482       .  S
C2547      C2548   1.400       .  A
C2547      S2552   1.803       .  S
C2548      C2549   1.402       .  A
C2548      H2553   1.082       .  S
C2549      C2550   1.408       .  A
C2550      S2554   1.806       .  S
C2551      C2556   1.411       .  A
C2551      C2560   1.401       .  A
S2552      H2568   1.406       .  S
S2554      H2565   1.407       .  S
C2556      C2557   1.403       .  A
C2556      S2561   1.807       .  S
C2557      C2558   1.404       .  A
C2557      H2562   1.085       .  S
C2558      C2559   1.415       .  A
C2559      C2560   1.399       .  A
C2559      S2563   1.802       .  S
C2560      H2564   1.087       .  S
S2561      H2566   1.407       .  S
S2563      H2567   1.407       .  S
C2569      C2570   1.405       .  A
C2569      C2574   1.402       .  A
C2569      H2579   1.082       .  S
C2570      C2571   1.411       .  A
C2570      C2575   1.485       .  S
C2571      C2572   1.397   1_556  A
C2571      S2576   1.804       .  S
C2572      C2573   1.407       .  A
C2572      H2577   1.082       .  S
C2573      C2574   1.416   1_554  A
C2574      S2578   1.803       .  S
C2575      C2580   1.409       .  A
C2575      C2584   1.401   1_565  A
S2576      H2592   1.406       .  S
S2578      H2589   1.407   1_556  S
C2580      C2581   1.402       .  A
C2580      S2585   1.808       .  S
C2581      C2582   1.410       .  A
C2581      H2586   1.082       .  S
C2582      C2583   1.422   1_565  A
C2583      C2584   1.401       .  A
C2583      S2587   1.800       .  S
C2584      H2588   1.084       .  S
S2585      H2590   1.406       .  S
S2587      H2591   1.401       .  S
C2593      C2594   1.402       .  A
C2593      C2598   1.401       .  A
C2593      H2603   1.082       .  S
C2594      C2595   1.410       .  A
C2594      C2599   1.477       .  S
C2595      C2596   1.395       .  A
C2595      S2600   1.805       .  S
C2596      C2597   1.408       .  A
C2596      H2601   1.082       .  S
C2597      C2598   1.419       .  A
C2598      S2602   1.803       .  S
C2599      C2604   1.408       .  A
C2599      C2608   1.403       .  A
S2600      H2616   1.406       .  S
S2602      H2613   1.406       .  S
C2604      C2605   1.402       .  A
C2604      S2609   1.806       .  S
C2605      C2606   1.405       .  A
C2605      H2610   1.080       .  S
C2606      C2607   1.414       .  A
C2607      C2608   1.398       .  A
C2607      S2611   1.805       .  S
C2608      H2612   1.081       .  S
S2609      H2614   1.407       .  S
S2611      H2615   1.406       .  S
C2617      C2618   1.400       .  A
C2617      C2622   1.403       .  A
C2617      H2627   1.081       .  S
C2618      C2619   1.410       .  A
C2618      C2623   1.482       .  S
C2619      C2620   1.399       .  A
C2619      S2624   1.805       .  S
C2620      C2621   1.410       .  A
C2620      H2625   1.081       .  S
C2621      C2622   1.424       .  A
C2622      S2626   1.803       .  S
C2623      C2628   1.408       .  A
C2623      C2632   1.403       .  A
S2624      H2640   1.405       .  S
S2626      H2637   1.408       .  S
C2628      C2629   1.404       .  A
C2628      S2633   1.806       .  S
C2629      C2630   1.407       .  A
C2629      H2634   1.081       .  S
C2630      C2631   1.414       .  A
C2631      C2632   1.402       .  A
C2631      S2635   1.803       .  S
C2632      H2636   1.082       .  S
S2633      H2638   1.407       .  S
S2635      H2639   1.406       .  S
C2641      C2642   1.401       .  A
C2641      C2646   1.398       .  A
C2641      H2651   1.084       .  S
C2642      C2643   1.413       .  A
C2642      C2647   1.481       .  S
C2643      C2644   1.403       .  A
C2643      S2648   1.804       .  S
C2644      C2645   1.405       .  A
C2644      H2649   1.084       .  S
C2645      C2646   1.414       .  A
C2646      S2650   1.805       .  S
C2647      C2652   1.406       .  A
C2647      C2656   1.406       .  A
S2648      H2664   1.405       .  S
S2650      H2661   1.406       .  S
C2652      C2653   1.398       .  A
C2652      S2657   1.808       .  S
C2653      C2654   1.409       .  A
C2653      H2658   1.082       .  S
C2654      C2655   1.415       .  A
C2655      C2656   1.406       .  A
C2655      S2659   1.802       .  S
C2656      H2660   1.083       .  S
S2657      H2662   1.407       .  S
S2659      H2663   1.407       .  S
C2665      C2666   1.402       .  A
C2665      C2670   1.402       .  A
C2665      H2675   1.081       .  S
C2666      C2667   1.413       .  A
C2666      C2671   1.487       .  S
C2667      C2668   1.403   1_455  A
C2667      S2672   1.804   1_455  S
C2668      C2669   1.407   1_655  A
C2668      H2673   1.082       .  S
C2669      C2670   1.418       .  A
C2670      S2674   1.810       .  S
C2671      C2676   1.410       .  A
C2671      C2680   1.404       .  A
S2672      H2688   1.406       .  S
S2674      H2685   1.407       .  S
C2676      C2677   1.401       .  A
C2676      S2681   1.809       .  S
C2677      C2678   1.406       .  A
C2677      H2682   1.083       .  S
C2678      C2679   1.416       .  A
C2679      C2680   1.404       .  A
C2679      S2683   1.800       .  S
C2680      H2684   1.084       .  S
S2681      H2686   1.407       .  S
S2683      H2687   1.406       .  S
C2689      C2690   1.400       .  A
C2689      C2694   1.401       .  A
C2689      H2699   1.084       .  S
C2690      C2691   1.407       .  A
C2690      C2695   1.475       .  S
C2691      C2692   1.395       .  A
C2691      S2696   1.805       .  S
C2692      C2693   1.410       .  A
C2692      H2697   1.083       .  S
C2693      C2694   1.420       .  A
C2694      S2698   1.801       .  S
C2695      C2700   1.410       .  A
C2695      C2704   1.401       .  A
S2696      H2712   1.406       .  S
S2698      H2709   1.408       .  S
C2700      C2701   1.400       .  A
C2700      S2705   1.807       .  S
C2701      C2702   1.401       .  A
C2701      H2706   1.083       .  S
C2702      C2703   1.409       .  A
C2703      C2704   1.402       .  A
C2703      S2707   1.806       .  S
C2704      H2708   1.082       .  S
S2705      H2710   1.407       .  S
S2707      H2711   1.407       .  S
C2713      C2714   1.404       .  A
C2713      C2718   1.404       .  A
C2713      H2723   1.085       .  S
C2714      C2715   1.413       .  A
C2714      C2719   1.486       .  S
C2715      C2716   1.402       .  A
C2715      S2720   1.804       .  S
C2716      C2717   1.404       .  A
C2716      H2721   1.085       .  S
C2717      C2718   1.413       .  A
C2718      S2722   1.804       .  S
C2719      C2724   1.410       .  A
C2719      C2728   1.397       .  A
S2720      H2736   1.405       .  S
S2722      H2733   1.406       .  S
C2724      C2725   1.411       .  A
C2724      S2729   1.804       .  S
C2725      C2726   1.407       .  A
C2725      H2730   1.083       .  S
C2726      C2727   1.418       .  A
C2727      C2728   1.400       .  A
C2727      S2731   1.805       .  S
C2728      H2732   1.084       .  S
S2729      H2734   1.407       .  S
S2731      H2735   1.407       .  S
C2737      C2738   1.398       .  A
C2737      C2742   1.398       .  A
C2737      H2747   1.087       .  S
C2738      C2739   1.413       .  A
C2738      C2743   1.481       .  S
C2739      C2740   1.402       .  A
C2739      S2744   1.803       .  S
C2740      C2741   1.404       .  A
C2740      H2745   1.086       .  S
C2741      C2742   1.419       .  A
C2742      S2746   1.800       .  S
C2743      C2748   1.410       .  A
C2743      C2752   1.402       .  A
S2744      H2760   1.405       .  S
S2746      H2757   1.402       .  S
C2748      C2749   1.403       .  A
C2748      S2753   1.806       .  S
C2749      C2750   1.402       .  A
C2749      H2754   1.083       .  S
C2750      C2751   1.411       .  A
C2751      C2752   1.404       .  A
C2751      S2755   1.806       .  S
C2752      H2756   1.083       .  S
S2753      H2758   1.407       .  S
S2755      H2759   1.407       .  S
C2761      C2762   1.404       .  A
C2761      C2766   1.405       .  A
C2761      H2771   1.082       .  S
C2762      C2763   1.408       .  A
C2762      C2767   1.480       .  S
C2763      C2764   1.395       .  A
C2763      S2768   1.806       .  S
C2764      C2765   1.409       .  A
C2764      H2769   1.081       .  S
C2765      C2766   1.418       .  A
C2766      S2770   1.801       .  S
C2767      C2772   1.410       .  A
C2767      C2776   1.401       .  A
S2768      H2784   1.405       .  S
S2770      H2781   1.404       .  S
C2772      C2773   1.405       .  A
C2772      S2777   1.806       .  S
C2773      C2774   1.403       .  A
C2773      H2778   1.084       .  S
C2774      C2775   1.413       .  A
C2775      C2776   1.398       .  A
C2775      S2779   1.805       .  S
C2776      H2780   1.084       .  S
S2777      H2782   1.407       .  S
S2779      H2783   1.405       .  S
C2785      C2786   1.403       .  A
C2785      C2790   1.404       .  A
C2785      H2795   1.085       .  S
C2786      C2787   1.416       .  A
C2786      C2791   1.492       .  S
C2787      C2788   1.402       .  A
C2787      S2792   1.805       .  S
C2788      C2789   1.406       .  A
C2788      H2793   1.085       .  S
C2789      C2790   1.418       .  A
C2790      S2794   1.801       .  S
C2791      C2796   1.411       .  A
C2791      C2800   1.408       .  A
S2792      H2808   1.406       .  S
S2794      H2805   1.407       .  S
C2796      C2797   1.402       .  A
C2796      S2801   1.808       .  S
C2797      C2798   1.406       .  A
C2797      H2802   1.081       .  S
C2798      C2799   1.412       .  A
C2799      C2800   1.407       .  A
C2799      S2803   1.802       .  S
C2800      H2804   1.082       .  S
S2801      H2806   1.407       .  S
S2803      H2807   1.406       .  S
C2809      C2810   1.405       .  A
C2809      C2814   1.399       .  A
C2809      H2819   1.086       .  S
C2810      C2811   1.416       .  A
C2810      C2815   1.491       .  S
C2811      C2812   1.401       .  A
C2811      S2816   1.804       .  S
C2812      C2813   1.402       .  A
C2812      H2817   1.087       .  S
C2813      C2814   1.413       .  A
C2814      S2818   1.804       .  S
C2815      C2820   1.414       .  A
C2815      C2824   1.402       .  A
S2816      H2832   1.406       .  S
S2818      H2829   1.407       .  S
C2820      C2821   1.407       .  A
C2820      S2825   1.807       .  S
C2821      C2822   1.405       .  A
C2821      H2826   1.083       .  S
C2822      C2823   1.418       .  A
C2823      C2824   1.398       .  A
C2823      S2827   1.805       .  S
C2824      H2828   1.085       .  S
S2825      H2830   1.407       .  S
S2827      H2831   1.407       .  S
C2833      C2834   1.401       .  A
C2833      C2838   1.398       .  A
C2833      H2843   1.084       .  S
C2834      C2835   1.413       .  A
C2834      C2839   1.477       .  S
C2835      C2836   1.400       .  A
C2835      S2840   1.805       .  S
C2836      C2837   1.402       .  A
C2836      H2841   1.084       .  S
C2837      C2838   1.413       .  A
C2838      S2842   1.805       .  S
C2839      C2844   1.406       .  A
C2839      C2848   1.400       .  A
S2840      H2856   1.405       .  S
S2842      H2853   1.406       .  S
C2844      C2845   1.402       .  A
C2844      S2849   1.807       .  S
C2845      C2846   1.408       .  A
C2845      H2850   1.081       .  S
C2846      C2847   1.419       .  A
C2847      C2848   1.399       .  A
C2847      S2851   1.803       .  S
C2848      H2852   1.083       .  S
S2849      H2854   1.407       .  S
S2851      H2855   1.406       .  S
C2857      C2858   1.401       .  A
C2857      C2862   1.401       .  A
C2857      H2867   1.084       .  S
C2858      C2859   1.415       .  A
C2858      C2863   1.484       .  S
C2859      C2860   1.402       .  A
C2859      S2864   1.805       .  S
C2860      C2861   1.404       .  A
C2860      H2865   1.084       .  S
C2861      C2862   1.417       .  A
C2862      S2866   1.803       .  S
C2863      C2868   1.408       .  A
C2863      C2872   1.403       .  A
S2864      H2880   1.405       .  S
S2866      H2877   1.406       .  S
C2868      C2869   1.403       .  A
C2868      S2873   1.807       .  S
C2869      C2870   1.408       .  A
C2869      H2874   1.083       .  S
C2870      C2871   1.416       .  A
C2871      C2872   1.403       .  A
C2871      S2875   1.802       .  S
C2872      H2876   1.084       .  S
S2873      H2878   1.407       .  S
S2875      H2879   1.407       .  S
C2881      C2882   1.400       .  A
C2881      C2886   1.404   1_565  A
C2881      H2891   1.084   1_565  S
C2882      C2883   1.410       .  A
C2882      C2887   1.486       .  S
C2883      C2884   1.402       .  A
C2883      S2888   1.804       .  S
C2884      C2885   1.410       .  A
C2884      H2889   1.083       .  S
C2885      C2886   1.425   1_565  A
C2886      S2890   1.809       .  S
C2887      C2892   1.410       .  A
C2887      C2896   1.404       .  A
S2888      H2904   1.406       .  S
S2890      H2901   1.407       .  S
C2892      C2893   1.405       .  A
C2892      S2897   1.807       .  S
C2893      C2894   1.405       .  A
C2893      H2898   1.080       .  S
C2894      C2895   1.414       .  A
C2895      C2896   1.403       .  A
C2895      S2899   1.804       .  S
C2896      H2900   1.081       .  S
S2897      H2902   1.407       .  S
S2899      H2903   1.406       .  S
C2905      C2906   1.402       .  A
C2905      C2910   1.405       .  A
C2905      H2915   1.083       .  S
C2906      C2907   1.413       .  A
C2906      C2911   1.483       .  S
C2907      C2908   1.400       .  A
C2907      S2912   1.805       .  S
C2908      C2909   1.403       .  A
C2908      H2913   1.084       .  S
C2909      C2910   1.416       .  A
C2910      S2914   1.809   1_545  S
C2911      C2916   1.411       .  A
C2911      C2920   1.401   1_554  A
S2912      H2928   1.405       .  S
S2914      H2925   1.406       .  S
C2916      C2917   1.405   1_554  A
C2916      S2921   1.806       .  S
C2917      C2918   1.403       .  A
C2917      H2922   1.084       .  S
C2918      C2919   1.413       .  A
C2919      C2920   1.400       .  A
C2919      S2923   1.804       .  S
C2920      H2924   1.085       .  S
S2921      H2926   1.407       .  S
S2923      H2927   1.406       .  S
C2929      C2930   1.403       .  A
C2929      C2934   1.404       .  A
C2929      H2939   1.083       .  S
C2930      C2931   1.414       .  A
C2930      C2935   1.480       .  S
C2931      C2932   1.399       .  A
C2931      S2936   1.805       .  S
C2932      C2933   1.400       .  A
C2932      H2937   1.085       .  S
C2933      C2934   1.411       .  A
C2934      S2938   1.806       .  S
C2935      C2940   1.410       .  A
C2935      C2944   1.400       .  A
S2936      H2952   1.405       .  S
S2938      H2949   1.407       .  S
C2940      C2941   1.403       .  A
C2940      S2945   1.806       .  S
C2941      C2942   1.405       .  A
C2941      H2946   1.084       .  S
C2942      C2943   1.415       .  A
C2943      C2944   1.399       .  A
C2943      S2947   1.801       .  S
C2944      H2948   1.085       .  S
S2945      H2950   1.407       .  S
S2947      H2951   1.407       .  S
C2953      C2954   1.403       .  A
C2953      C2958   1.398       .  A
C2953      H2963   1.083       .  S
C2954      C2955   1.414       .  A
C2954      C2959   1.487       .  S
C2955      C2956   1.404       .  A
C2955      S2960   1.803       .  S
C2956      C2957   1.405       .  A
C2956      H2961   1.083       .  S
C2957      C2958   1.415       .  A
C2958      S2962   1.804       .  S
C2959      C2964   1.410       .  A
C2959      C2968   1.405       .  A
S2960      H2976   1.406       .  S
S2962      H2973   1.407       .  S
C2964      C2965   1.401       .  A
C2964      S2969   1.808       .  S
C2965      C2966   1.405       .  A
C2965      H2970   1.084       .  S
C2966      C2967   1.413       .  A
C2967      C2968   1.407       .  A
C2967      S2971   1.806   1_545  S
C2968      H2972   1.083       .  S
S2969      H2974   1.407       .  S
S2971      H2975   1.407       .  S
C2977      C2978   1.401       .  A
C2977      C2982   1.401       .  A
C2977      H2987   1.082       .  S
C2978      C2979   1.412       .  A
C2978      C2983   1.491       .  S
C2979      C2980   1.405       .  A
C2979      S2984   1.803       .  S
C2980      C2981   1.412       .  A
C2980      H2985   1.081       .  S
C2981      C2982   1.424       .  A
C2982      S2986   1.801       .  S
C2983      C2988   1.412       .  A
C2983      C2992   1.404       .  A
S2984      H3000   1.406       .  S
S2986      H2997   1.407       .  S
C2988      C2989   1.404       .  A
C2988      S2993   1.808       .  S
C2989      C2990   1.405       .  A
C2989      H2994   1.083       .  S
C2990      C2991   1.418       .  A
C2991      C2992   1.405       .  A
C2991      S2995   1.804       .  S
C2992      H2996   1.084       .  S
S2993      H2998   1.407       .  S
S2995      H2999   1.406       .  S
C3001      C3002   1.400       .  A
C3001      C3006   1.395       .  A
C3001      H3011   1.084       .  S
C3002      C3003   1.411       .  A
C3002      C3007   1.475       .  S
C3003      C3004   1.397       .  A
C3003      S3008   1.804       .  S
C3004      C3005   1.403       .  A
C3004      H3009   1.084       .  S
C3005      C3006   1.415       .  A
C3006      S3010   1.803       .  S
C3007      C3012   1.409       .  A
C3007      C3016   1.402       .  A
S3008      H3024   1.406       .  S
S3010      H3021   1.406       .  S
C3012      C3013   1.401       .  A
C3012      S3017   1.806       .  S
C3013      C3014   1.402       .  A
C3013      H3018   1.086       .  S
C3014      C3015   1.411       .  A
C3015      C3016   1.394       .  A
C3015      S3019   1.805       .  S
C3016      H3020   1.087       .  S
S3017      H3022   1.407       .  S
S3019      H3023   1.406       .  S
C3025      C3026   1.399       .  A
C3025      C3030   1.397       .  A
C3025      H3035   1.083       .  S
C3026      C3027   1.412       .  A
C3026      C3031   1.476       .  S
C3027      C3028   1.401       .  A
C3027      S3032   1.804       .  S
C3028      C3029   1.403       .  A
C3028      H3033   1.083       .  S
C3029      C3030   1.416       .  A
C3030      S3034   1.804       .  S
C3031      C3036   1.409       .  A
C3031      C3040   1.400       .  A
S3032      H3048   1.405       .  S
S3034      H3045   1.403       .  S
C3036      C3037   1.402       .  A
C3036      S3041   1.806       .  S
C3037      C3038   1.403       .  A
C3037      H3042   1.085       .  S
C3038      C3039   1.413       .  A
C3039      C3040   1.398       .  A
C3039      S3043   1.804       .  S
C3040      H3044   1.086       .  S
S3041      H3046   1.407       .  S
S3043      H3047   1.406       .  S
C3049      C3050   1.401       .  A
C3049      C3054   1.395       .  A
C3049      H3059   1.084       .  S
C3050      C3051   1.413       .  A
C3050      C3055   1.477       .  S
C3051      C3052   1.400       .  A
C3051      S3056   1.804       .  S
C3052      C3053   1.404       .  A
C3052      H3057   1.084       .  S
C3053      C3054   1.414       .  A
C3054      S3058   1.805       .  S
C3055      C3060   1.410       .  A
C3055      C3064   1.399       .  A
S3056      H3072   1.406       .  S
S3058      H3069   1.407       .  S
C3060      C3061   1.403       .  A
C3060      S3065   1.807       .  S
C3061      C3062   1.405       .  A
C3061      H3066   1.082       .  S
C3062      C3063   1.419       .  A
C3063      C3064   1.396       .  A
C3063      S3067   1.804       .  S
C3064      H3068   1.084       .  S
S3065      H3070   1.407       .  S
S3067      H3071   1.405       .  S
C3073      C3074   1.401       .  A
C3073      C3078   1.399       .  A
C3073      H3083   1.084       .  S
C3074      C3075   1.414       .  A
C3074      C3079   1.481       .  S
C3075      C3076   1.402       .  A
C3075      S3080   1.806       .  S
C3076      C3077   1.403       .  A
C3076      H3081   1.084       .  S
C3077      C3078   1.415       .  A
C3078      S3082   1.804       .  S
C3079      C3084   1.410       .  A
C3079      C3088   1.400       .  A
S3080      H3096   1.404       .  S
S3082      H3093   1.406   1_565  S
C3084      C3085   1.405       .  A
C3084      S3089   1.806       .  S
C3085      C3086   1.404       .  A
C3085      H3090   1.084       .  S
C3086      C3087   1.414       .  A
C3087      C3088   1.399       .  A
C3087      S3091   1.799       .  S
C3088      H3092   1.086       .  S
S3089      H3094   1.407       .  S
S3091      H3095   1.406       .  S
C3097      C3098   1.399       .  A
C3097      C3102   1.396       .  A
C3097      H3107   1.086       .  S
C3098      C3099   1.412       .  A
C3098      C3103   1.474       .  S
C3099      C3100   1.399       .  A
C3099      S3104   1.805       .  S
C3100      C3101   1.405       .  A
C3100      H3105   1.085       .  S
C3101      C3102   1.416       .  A
C3102      S3106   1.802       .  S
C3103      C3108   1.409       .  A
C3103      C3112   1.400       .  A
S3104      H3120   1.403       .  S
S3106      H3117   1.406       .  S
C3108      C3109   1.401       .  A
C3108      S3113   1.807       .  S
C3109      C3110   1.402       .  A
C3109      H3114   1.084       .  S
C3110      C3111   1.414       .  A
C3111      C3112   1.398       .  A
C3111      S3115   1.804       .  S
C3112      H3116   1.086       .  S
S3113      H3118   1.407       .  S
S3115      H3119   1.406       .  S
C3121      C3122   1.403       .  A
C3121      C3126   1.404       .  A
C3121      H3131   1.086       .  S
C3122      C3123   1.410       .  A
C3122      C3127   1.486       .  S
C3123      C3124   1.398       .  A
C3123      S3128   1.804       .  S
C3124      C3125   1.408       .  A
C3124      H3129   1.085       .  S
C3125      C3126   1.421       .  A
C3126      S3130   1.800       .  S
C3127      C3132   1.410       .  A
C3127      C3136   1.403       .  A
S3128      H3144   1.406       .  S
S3130      H3141   1.408       .  S
C3132      C3133   1.405       .  A
C3132      S3137   1.806       .  S
C3133      C3134   1.405       .  A
C3133      H3138   1.084       .  S
C3134      C3135   1.415       .  A
C3135      C3136   1.401       .  A
C3135      S3139   1.804       .  S
C3136      H3140   1.085       .  S
S3137      H3142   1.407       .  S
S3139      H3143   1.406       .  S
C3145      C3146   1.401       .  A
C3145      C3150   1.402       .  A
C3145      H3155   1.085       .  S
C3146      C3147   1.409       .  A
C3146      C3151   1.481       .  S
C3147      C3148   1.399       .  A
C3147      S3152   1.804       .  S
C3148      C3149   1.411       .  A
C3148      H3153   1.084       .  S
C3149      C3150   1.420       .  A
C3150      S3154   1.800   1_655  S
C3151      C3156   1.409       .  A
C3151      C3160   1.402       .  A
S3152      H3168   1.405       .  S
S3154      H3165   1.408       .  S
C3156      C3157   1.402       .  A
C3156      S3161   1.807       .  S
C3157      C3158   1.405       .  A
C3157      H3162   1.083       .  S
C3158      C3159   1.416       .  A
C3159      C3160   1.402       .  A
C3159      S3163   1.804       .  S
C3160      H3164   1.084       .  S
S3161      H3166   1.407       .  S
S3163      H3167   1.406       .  S
C3169      C3170   1.404       .  A
C3169      C3174   1.401       .  A
C3169      H3179   1.082       .  S
C3170      C3171   1.411       .  A
C3170      C3175   1.479       .  S
C3171      C3172   1.396       .  A
C3171      S3176   1.804       .  S
C3172      C3173   1.404       .  A
C3172      H3177   1.082       .  S
C3173      C3174   1.414       .  A
C3174      S3178   1.803       .  S
C3175      C3180   1.407       .  A
C3175      C3184   1.401       .  A
S3176      H3192   1.406       .  S
S3178      H3189   1.406       .  S
C3180      C3181   1.399       .  A
C3180      S3185   1.809       .  S
C3181      C3182   1.410       .  A
C3181      H3186   1.082       .  S
C3182      C3183   1.420       .  A
C3183      C3184   1.400       .  A
C3183      S3187   1.801       .  S
C3184      H3188   1.083       .  S
S3185      H3190   1.407       .  S
S3187      H3191   1.404       .  S
C3193      C3194   1.403       .  A
C3193      C3198   1.401       .  A
C3193      H3203   1.086       .  S
C3194      C3195   1.412       .  A
C3194      C3199   1.479       .  S
C3195      C3196   1.397       .  A
C3195      S3200   1.805       .  S
C3196      C3197   1.404       .  A
C3196      H3201   1.086       .  S
C3197      C3198   1.414       .  A
C3198      S3202   1.804       .  S
C3199      C3204   1.406       .  A
C3199      C3208   1.400       .  A
S3200      H3216   1.405       .  S
S3202      H3213   1.406       .  S
C3204      C3205   1.402       .  A
C3204      S3209   1.807       .  S
C3205      C3206   1.411       .  A
C3205      H3210   1.081       .  S
C3206      C3207   1.421       .  A
C3207      C3208   1.401       .  A
C3207      S3211   1.801       .  S
C3208      H3212   1.083       .  S
S3209      H3214   1.406       .  S
S3211      H3215   1.408   1_655  S
C3217      C3218   1.404       .  A
C3217      C3222   1.400       .  A
C3217      H3227   1.085       .  S
C3218      C3219   1.413       .  A
C3218      C3223   1.483       .  S
C3219      C3220   1.399       .  A
C3219      S3224   1.803       .  S
C3220      C3221   1.402       .  A
C3220      H3225   1.085       .  S
C3221      C3222   1.413       .  A
C3222      S3226   1.804       .  S
C3223      C3228   1.408       .  A
C3223      C3232   1.401       .  A
S3224      H3240   1.406       .  S
S3226      H3237   1.406       .  S
C3228      C3229   1.401       .  A
C3228      S3233   1.808       .  S
C3229      C3230   1.409       .  A
C3229      H3234   1.083       .  S
C3230      C3231   1.420       .  A
C3231      C3232   1.401       .  A
C3231      S3235   1.801       .  S
C3232      H3236   1.085       .  S
S3233      H3238   1.407   1_655  S
S3235      H3239   1.408       .  S
C3241      C3242   1.401       .  A
C3241      C3246   1.399       .  A
C3241      H3251   1.084       .  S
C3242      C3243   1.414       .  A
C3242      C3247   1.480       .  S
C3243      C3244   1.401       .  A
C3243      S3248   1.805       .  S
C3244      C3245   1.403       .  A
C3244      H3249   1.084       .  S
C3245      C3246   1.415       .  A
C3246      S3250   1.804       .  S
C3247      C3252   1.410       .  A
C3247      C3256   1.401       .  A
S3248      H3264   1.405       .  S
S3250      H3261   1.406       .  S
C3252      C3253   1.403       .  A
C3252      S3257   1.807       .  S
C3253      C3254   1.404       .  A
C3253      H3258   1.084       .  S
C3254      C3255   1.414       .  A
C3255      C3256   1.399       .  A
C3255      S3259   1.800       .  S
C3256      H3260   1.085       .  S
S3257      H3262   1.407       .  S
S3259      H3263   1.407       .  S
C3265      C3266   1.406       .  A
C3265      C3270   1.402       .  A
C3265      H3275   1.083       .  S
C3266      C3267   1.415       .  A
C3266      C3271   1.493       .  S
C3267      C3268   1.403       .  A
C3267      S3272   1.804   1_455  S
C3268      C3269   1.405       .  A
C3268      H3273   1.082   1_455  S
C3269      C3270   1.414       .  A
C3270      S3274   1.803       .  S
C3271      C3276   1.414       .  A
C3271      C3280   1.406       .  A
S3272      H3288   1.406   1_655  S
S3274      H3285   1.407       .  S
C3276      C3277   1.404       .  A
C3276      S3281   1.807       .  S
C3277      C3278   1.402       .  A
C3277      H3282   1.085       .  S
C3278      C3279   1.413       .  A
C3279      C3280   1.403       .  A
C3279      S3283   1.804       .  S
C3280      H3284   1.085       .  S
S3281      H3286   1.407       .  S
S3283      H3287   1.405       .  S
C3289      C3290   1.406       .  A
C3289      C3294   1.405       .  A
C3289      H3299   1.083       .  S
C3290      C3291   1.413       .  A
C3290      C3295   1.491       .  S
C3291      C3292   1.398       .  A
C3291      S3296   1.805       .  S
C3292      C3293   1.407       .  A
C3292      H3297   1.083       .  S
C3293      C3294   1.417       .  A
C3294      S3298   1.803       .  S
C3295      C3300   1.411       .  A
C3295      C3304   1.402       .  A
S3296      H3312   1.406       .  S
S3298      H3309   1.406       .  S
C3300      C3301   1.406       .  A
C3300      S3305   1.807       .  S
C3301      C3302   1.407       .  A
C3301      H3306   1.082   1_455  S
C3302      C3303   1.419       .  A
C3303      C3304   1.404       .  A
C3303      S3307   1.808       .  S
C3304      H3308   1.083       .  S
S3305      H3310   1.407   1_455  S
S3307      H3311   1.407       .  S
