geometry optimzed in LAMMPS
_audit_creation_date              2020-11-30 
_audit_creation_method            'lammps2cif' 
_symmetry_space_group_name_H-M    'P1' 
_symmetry_Int_Tables_number       1 
_symmetry_cell_setting            triclinic 
loop_ 
_symmetry_equiv_pos_as_xyz 
  x,y,z 
_cell_length_a                    37.44926488 
_cell_length_b                    37.44682583553354 
_cell_length_c                    24.609146689769865 
_cell_angle_alpha                 89.99301610789469 
_cell_angle_beta                  90.0099266226853 
_cell_angle_gamma                 119.98941892614957 
loop_ 
_atom_site_label 
_atom_site_type_symbol 
_atom_site_fract_x 
_atom_site_fract_y 
_atom_site_fract_z 
_atom_site_charge 
C1          C  0.24589923  0.19119568  0.09751248     0.79000
N2          N  0.23531857  0.20188745  0.04994934    -0.79300
C3          C  0.26123056  0.23876854  0.02623232     0.81400
N4          N  0.29810863  0.26467426  0.04994841    -0.79300
C5          C  0.30880266  0.25409560  0.09751136     0.81500
N6          N  0.28254756  0.21744591  0.12116380    -0.81000
C7          C  0.26492449  0.29797430  0.90366103     0.79000
N8          N  0.22827745  0.27172445  0.88000990    -0.79300
C9          C  0.20202212  0.23507507  0.90366209     0.81400
N10         N  0.21271531  0.22449612  0.95122581    -0.79300
C11         C  0.24959314  0.25040227  0.97494234     0.81500
N12         N  0.27550540  0.28728290  0.95122569    -0.81000
O13         O  0.18999174  0.23463592  0.50310500    -0.74200
O14         O  0.30107949  0.27492168  0.57116852    -0.75200
O15         O  0.26536963  0.31001045  0.50310115    -0.63800
O16         O  0.22507729  0.19892279  0.57117136    -0.72200
O17         O  0.24545809  0.17915479  0.49806856    -0.71700
O18         O  0.28575049  0.29024278  0.42999820    -0.63000
O19         O  0.32083607  0.25452970  0.49806583    -0.75500
O20         O  0.20974767  0.21424369  0.43000173    -0.74300
Cu21       Cu  0.24468011  0.25532270  0.53969712     1.04600
Cu22       Cu  0.26614757  0.23384272  0.46147272     1.04300
C23         C  0.18243138  0.21836292  0.45583676     0.92000
C24         C  0.32839585  0.27080212  0.54533319     0.91200
C25         C  0.28163709  0.31756481  0.45583335     0.83300
C26         C  0.22919052  0.17160118  0.54533713     0.89600
O27         O  0.11908312  0.45691152  0.76333145    -0.74200
O28         O  0.07879197  0.34582430  0.83140499    -0.75200
O29         O  0.04308099  0.38091190  0.76333702    -0.63800
O30         O  0.15416995  0.42119938  0.83139826    -0.72200
O31         O  0.13441415  0.44159203  0.90450103    -0.71700
O32         O  0.02332509  0.40130481  0.83643971    -0.63000
O33         O  0.05841173  0.36559300  0.90450741    -0.75500
O34         O  0.09870303  0.47668008  0.83643431    -0.74300
Cu35       Cu  0.09948090  0.40051172  0.79480708     1.04600
Cu36       Cu  0.07801415  0.42199246  0.87303131     1.04300
C37         C  0.11496980  0.48423317  0.78916622     0.92000
C38         C  0.06252498  0.33827065  0.87867279     0.91200
C39         C  0.01576510  0.38503160  0.78917258     0.83300
C40         C  0.16173052  0.43747245  0.87866478     0.89600
C41         C  0.30880291  0.03845850  0.09750006     0.79000
N42         N  0.29811241  0.01719215  0.04994041    -0.79300
C43         C  0.26123127  0.00621869  0.02622779     0.81400
N44         N  0.23530980  0.01718041  0.04994395    -0.79300
C45         C  0.24588868  0.03844616  0.09750555     0.81500
N46         N  0.28253959  0.04884433  0.12115222    -0.81000
C47         C  0.20202388  0.45071325  0.90367088     0.79000
N48         N  0.22828713  0.44032708  0.88001880    -0.79300
C49         C  0.26493791  0.45072552  0.90366546     0.81400
N50         N  0.27551768  0.47199205  0.95122613    -0.79300
C51         C  0.24959584  0.48295414  0.97494175     0.81500
N52         N  0.21271495  0.47198062  0.95122983    -0.81000
C53         C  0.46154105  0.19119378  0.09749385     0.79000
N54         N  0.48280830  0.20188369  0.04993713    -0.79300
C55         C  0.49378003  0.23876715  0.02622755     0.81400
N56         N  0.48281633  0.26468892  0.04994041    -0.79300
C57         C  0.46154970  0.25410898  0.09749789     0.81500
N58         N  0.45115369  0.21745639  0.12114255    -0.81000
C59         C  0.04928520  0.29797691  0.90367936     0.79000
N60         N  0.05967223  0.27171295  0.88003020    -0.79300
C61         C  0.04927578  0.23506119  0.90367508     0.81400
N62         N  0.02800931  0.22448117  0.95123292    -0.79300
C63         C  0.01704624  0.25040281  0.97494533     0.81500
N64         N  0.02801800  0.28728654  0.95123622    -0.81000
O65         O  0.41212161  0.01248967  0.16473832    -0.74200
O66         O  0.45241457  0.12357703  0.09666550    -0.75200
O67         O  0.48749967  0.08786411  0.16473329    -0.63800
O68         O  0.37641220  0.04757876  0.09667086    -0.72200
O69         O  0.35665605  0.06797131  0.16977365    -0.71700
O70         O  0.46774411  0.10825696  0.23783609    -0.63000
O71         O  0.43203433  0.14334572  0.16976791    -0.75500
O72         O  0.39174148  0.03225807  0.23784111    -0.74300
Cu73       Cu  0.43281144  0.06717742  0.12814124     1.04600
Cu74       Cu  0.41134463  0.08865815  0.20636561     1.04300
C75         C  0.39585506  0.00493597  0.21200578     0.92000
C76         C  0.44830130  0.15089963  0.12250040     0.91200
C77         C  0.49506066  0.10413678  0.21200016     0.83300
C78         C  0.34909560  0.05169874  0.12250672     0.89600
C79         C  0.07923543  0.35786055  0.43084449     0.79000
N80         N  0.11588363  0.38411076  0.45449520    -0.79300
C81         C  0.14213795  0.42075961  0.43084235     0.81400
N82         N  0.13144409  0.43133899  0.38327923    -0.79300
C83         C  0.09456523  0.40543224  0.35956397     0.81500
N84         N  0.06865404  0.36855202  0.38328137    -0.81000
C85         C  0.03535400  0.40173926  0.23699608     0.79000
N86         N  0.06160814  0.43838810  0.21334325    -0.79300
C87         C  0.09825637  0.46463827  0.23699323     0.81400
N88         N  0.10883827  0.45394687  0.28455679    -0.79300
C89         C  0.08292692  0.41706656  0.30827369     0.81500
N90         N  0.04604802  0.39115990  0.28455922    -0.81000
C91         C  0.14213736  0.20512280  0.43083257     0.79000
N92         N  0.11587501  0.21550875  0.45448521    -0.79300
C93         C  0.07922355  0.20511027  0.43084026     0.81400
N94         N  0.06864314  0.18384363  0.38327936    -0.79300
C95         C  0.09456360  0.17288157  0.35956247     0.81500
N96         N  0.13144585  0.18385515  0.38327256    -0.81000
C97         C  0.03535384  0.11737665  0.23700597     0.79000
N98         N  0.04604502  0.13864353  0.28456550    -0.79300
C99         C  0.08292701  0.14961666  0.30827656     0.81400
N100        N  0.10884749  0.13865430  0.28455957    -0.79300
C101        C  0.09826686  0.11738812  0.23699862     0.81500
N102        N  0.06161591  0.10699015  0.21335302    -0.81000
O103        O  0.22755049  0.14333838  0.16979215    -0.74200
O104        O  0.15674811  0.03224114  0.23782812    -0.75200
O105        O  0.22753959  0.06794241  0.16978652    -0.63800
O106        O  0.15675834  0.10826124  0.23783336    -0.72200
O107        O  0.11661519  0.08789109  0.16471705    -0.71700
O108        O  0.18739667  0.04757214  0.09667032    -0.63000
O109        O  0.11660450  0.01249499  0.16471266    -0.75500
O110        O  0.18740738  0.12359273  0.09667634    -0.74300
Cu111      Cu  0.19354803  0.08864456  0.20637136     1.04600
Cu112      Cu  0.15060709  0.06718904  0.12813275     1.04300
C113        C  0.21884085  0.15090236  0.12251904     0.92000
C114        C  0.12531493  0.00493174  0.21198610     0.91200
C115        C  0.21882840  0.05168008  0.12251200     0.83300
C116        C  0.12532720  0.10415351  0.21199201     0.89600
O117        O  0.49008346  0.19890716  0.57116206    -0.74200
O118        O  0.06088704  0.31000415  0.50312554    -0.75200
O119        O  0.49009492  0.27492824  0.57116813    -0.63800
O120        O  0.06087551  0.23460774  0.50312136    -0.72200
O121        O  0.02073216  0.21423714  0.43000544    -0.71700
O122        O  0.44995173  0.25455787  0.49805208    -0.63000
O123        O  0.02074336  0.29025795  0.43001009    -0.75500
O124        O  0.44993980  0.17916131  0.49804659    -0.74300
Cu125      Cu  0.02688414  0.25531040  0.53970558     1.04600
Cu126      Cu  0.48394287  0.23385480  0.46146734     1.04300
C127        C  0.45864993  0.17159770  0.54532092     0.92000
C128        C  0.05217675  0.31756721  0.45585197     0.91200
C129        C  0.45866400  0.27082040  0.54532719     0.83300
C130        C  0.05216317  0.21834480  0.45584668     0.89600
C131        C  0.36868905  0.28404233  0.57033930     0.79000
N132        N  0.37938072  0.30530991  0.61789994    -0.79300
C133        C  0.41626118  0.31628297  0.64161013     0.81400
N134        N  0.44218316  0.30532153  0.61789506    -0.79300
C135        C  0.43160327  0.28405485  0.57033315     0.81500
N136        N  0.39495229  0.27365653  0.54668775    -0.81000
C137        C  0.47547132  0.37179082  0.76416786     0.79000
N138        N  0.44920808  0.38217648  0.78781909    -0.79300
C139        C  0.41255743  0.37177833  0.76417491     0.81400
N140        N  0.40197663  0.35051065  0.71661269    -0.79300
C141        C  0.42789831  0.33954910  0.69289764     0.81500
N142        N  0.46477933  0.35052253  0.71660762    -0.81000
O143        O  0.35406597  0.38090582  0.76333916    -0.74200
O144        O  0.28328678  0.42122780  0.83138522    -0.75200
O145        O  0.35407845  0.45692700  0.76334476    -0.63800
O146        O  0.28327420  0.34583097  0.83138114    -0.72200
O147        O  0.32341732  0.36557659  0.90449688    -0.71700
O148        O  0.39422175  0.47667301  0.83646026    -0.63000
O149        O  0.32342943  0.44159791  0.90450166    -0.75500
O150        O  0.39420905  0.40127583  0.83645510    -0.74300
Cu151      Cu  0.31727748  0.40052425  0.79480112     1.04600
Cu152      Cu  0.36021830  0.42197959  0.87303999     1.04300
C153        C  0.38549701  0.38501298  0.78917998     0.92000
C154        C  0.29199818  0.43749067  0.87866010     0.91200
C155        C  0.38551187  0.48423650  0.78918656     0.83300
C156        C  0.29198382  0.33826747  0.87865448     0.89600
C157        C  0.36868820  0.06840524  0.57033023     0.79000
N158        N  0.37938306  0.05782711  0.61789413    -0.79300
C159        C  0.41626050  0.08373305  0.64160805     0.81400
N160        N  0.44217291  0.12061390  0.61789113    -0.79300
C161        C  0.43159123  0.13130491  0.57032673     0.81500
N162        N  0.39494285  0.10505411  0.54667729    -0.81000
C163        C  0.47547229  0.08742900  0.76417691     0.79000
N164        N  0.46477774  0.09800727  0.71661348    -0.79300
C165        C  0.42790072  0.07210131  0.69289894     0.81400
N166        N  0.40198821  0.03521998  0.71661596    -0.79300
C167        C  0.41257057  0.02452953  0.76418020     0.81500
N168        N  0.44921845  0.05078038  0.78783026    -0.78300
O169        O  0.39173725  0.34323441  0.23783951    -0.74200
O170        O  0.43205369  0.27245479  0.16977842    -0.75200
O171        O  0.46775415  0.34324808  0.23782932    -0.63800
O172        O  0.35666107  0.27244037  0.16978917    -0.72200
O173        O  0.37640192  0.31258618  0.09667783    -0.71700
O174        O  0.48749509  0.38339429  0.16471807    -0.63000
O175        O  0.45241916  0.31260039  0.09666680    -0.75500
O176        O  0.41210242  0.38337989  0.16472768    -0.74300
Cu177      Cu  0.41135309  0.30644528  0.20637007     1.04600
Cu178      Cu  0.43280311  0.34938939  0.12813650     1.04300
C179        C  0.39584239  0.37466676  0.21200042     0.92000
C180        C  0.44831447  0.28116865  0.12250434     0.91200
C181        C  0.49506216  0.37468394  0.21198929     0.83300
C182        C  0.34909349  0.28115003  0.12251818     0.89600
C183        C  0.29487665  0.35785883  0.43082815     0.79000
N184        N  0.28448959  0.38412198  0.45447818    -0.79300
C185        C  0.29488533  0.42077466  0.43083403     0.81400
N186        N  0.31615127  0.43135419  0.38327554    -0.79300
C187        C  0.32711438  0.40543325  0.35956216     0.81500
N188        N  0.31614301  0.36854926  0.38327128    -0.81000
C189        C  0.38261543  0.46464141  0.23701280     0.79000
N190        N  0.39300275  0.43837861  0.21336236    -0.79300
C191        C  0.38260708  0.40172644  0.23700794     0.81400
N192        N  0.36134218  0.39114702  0.28456575    -0.79300
C193        C  0.35037878  0.41706838  0.30827969     0.81500
N194        N  0.36135000  0.45395222  0.28456943    -0.81000
O195        O  0.22507113  0.00989899  0.57117299    -0.74200
O196        O  0.26538928  0.43912036  0.50311347    -0.75200
O197        O  0.30108872  0.00991380  0.57116413    -0.63800
O198        O  0.18999599  0.43910508  0.50312130    -0.72200
O199        O  0.20973742  0.47925087  0.43001022    -0.71700
O200        O  0.32083010  0.05005942  0.49805277    -0.63000
O201        O  0.28575478  0.47926592  0.43000185    -0.75500
O202        O  0.24543707  0.05004448  0.49806080    -0.74300
Cu203      Cu  0.24468781  0.47311044  0.53970407     1.04600
Cu204      Cu  0.26613832  0.01605420  0.46147020     1.04300
C205        C  0.22917649  0.04133150  0.54533400     0.92000
C206        C  0.28164985  0.44783339  0.45584064     0.91200
C207        C  0.32839684  0.04134981  0.54532299     0.83300
C208        C  0.18242983  0.44781554  0.45584980     0.89600
C209        C  0.21595095  0.13130678  0.57034257     0.79000
N210        N  0.19468430  0.12061842  0.61789987    -0.79300
C211        C  0.18371285  0.08373381  0.64160998     0.81400
N212        N  0.19467533  0.05781273  0.61789833    -0.79300
C213        C  0.21594147  0.06839107  0.57033980     0.81500
N214        N  0.22633732  0.10504326  0.54669468    -0.81000
C215        C  0.12820943  0.02452830  0.76416016     0.79000
N216        N  0.14947595  0.03521664  0.71660290    -0.79300
C217        C  0.16044734  0.07210087  0.69289329     0.81400
N218        N  0.14948507  0.09802240  0.71660534    -0.79300
C219        C  0.12821896  0.08744370  0.76416405     0.81500
N220        N  0.11782301  0.05079128  0.78780911    -0.81000
O221        O  0.04307135  0.14592088  0.76334346    -0.74200
O222        O  0.15416443  0.21672985  0.83138359    -0.75200
O223        O  0.11908912  0.14593606  0.76333195    -0.63800
O224        O  0.07877112  0.21671452  0.83139471    -0.72200
O225        O  0.05840603  0.17656870  0.90450635    -0.71700
O226        O  0.09872414  0.10579054  0.83644403    -0.63000
O227        O  0.13442354  0.17658407  0.90449439    -0.75500
O228        O  0.02333087  0.10577508  0.83645464    -0.74300
Cu229      Cu  0.09947239  0.18272444  0.79480225     1.04600
Cu230      Cu  0.07802277  0.13978054  0.87303596     1.04300
C231        C  0.01576402  0.11448522  0.78918382     0.92000
C232        C  0.16173107  0.20801965  0.87865509     0.91200
C233        C  0.11498416  0.11450352  0.78917085     0.83300
C234        C  0.06251110  0.20800116  0.87866737     0.89600
C235        C  0.24589914  0.69119554  0.09751279     0.79000
N236        N  0.23531848  0.70188754  0.04994902    -0.79300
C237        C  0.26123085  0.73876863  0.02623283     0.81400
N238        N  0.29810843  0.76467423  0.04994814    -0.79300
C239        C  0.30880241  0.75409531  0.09751138     0.81500
N240        N  0.28254768  0.71744610  0.12116368    -0.81000
C241        C  0.26492482  0.79797446  0.90366126     0.79000
N242        N  0.22827705  0.77172424  0.88000975    -0.79300
C243        C  0.20202233  0.73507506  0.90366248     0.81400
N244        N  0.21271535  0.72449632  0.95122553    -0.79300
C245        C  0.24959309  0.75040212  0.97494251     0.81500
N246        N  0.27550531  0.78728294  0.95122566    -0.81000
O247        O  0.18999184  0.73463597  0.50310500    -0.74200
O248        O  0.30107960  0.77492168  0.57116841    -0.75200
O249        O  0.26536964  0.81001042  0.50310122    -0.63800
O250        O  0.22507727  0.69892285  0.57117151    -0.72200
O251        O  0.24545799  0.67915477  0.49806876    -0.71700
O252        O  0.28575047  0.79024281  0.42999824    -0.63000
O253        O  0.32083610  0.75452952  0.49806564    -0.75500
O254        O  0.20974772  0.71424358  0.43000171    -0.74300
Cu255      Cu  0.24468015  0.75532270  0.53969709     1.04600
Cu256      Cu  0.26614748  0.73384255  0.46147276     1.04300
C257        C  0.18243109  0.71836285  0.45583688     0.92000
C258        C  0.32839591  0.77080217  0.54533351     0.91200
C259        C  0.28163718  0.81756464  0.45583312     0.83300
C260        C  0.22919064  0.67160098  0.54533668     0.89600
O261        O  0.11908315  0.95691156  0.76333160    -0.74200
O262        O  0.07879201  0.84582433  0.83140499    -0.75200
O263        O  0.04308095  0.88091190  0.76333701    -0.63800
O264        O  0.15417004  0.92119937  0.83139820    -0.72200
O265        O  0.13441417  0.94159204  0.90450103    -0.71700
O266        O  0.02332512  0.90130485  0.83643982    -0.63000
O267        O  0.05841177  0.86559307  0.90450744    -0.75500
O268        O  0.09870302  0.97668009  0.83643448    -0.74300
Cu269      Cu  0.09948093  0.90051173  0.79480710     1.04600
Cu270      Cu  0.07801423  0.92199245  0.87303133     1.04300
C271        C  0.11496990  0.98423315  0.78916587     0.92000
C272        C  0.06252501  0.83827052  0.87867272     0.91200
C273        C  0.01576502  0.88503159  0.78917262     0.83300
C274        C  0.16173038  0.93747246  0.87866494     0.89600
C275        C  0.30880280  0.53845851  0.09750006     0.79000
N276        N  0.29811238  0.51719213  0.04994036    -0.79300
C277        C  0.26123142  0.50621868  0.02622776     0.81400
N278        N  0.23530973  0.51718047  0.04994403    -0.79300
C279        C  0.24588877  0.53844608  0.09750534     0.81500
N280        N  0.28253966  0.54884437  0.12115227    -0.81000
C281        C  0.20202383  0.95071320  0.90367071     0.79000
N282        N  0.22828707  0.94032705  0.88001874    -0.79300
C283        C  0.26493806  0.95072561  0.90366567     0.81400
N284        N  0.27551753  0.97199209  0.95122618    -0.79300
C285        C  0.24959603  0.98295413  0.97494174     0.81500
N286        N  0.21271502  0.97198066  0.95122992    -0.81000
C287        C  0.46154084  0.69119400  0.09749420     0.79000
N288        N  0.48280838  0.70188361  0.04993691    -0.79300
C289        C  0.49377993  0.73876714  0.02622769     0.81400
N290        N  0.48281623  0.76468890  0.04994058    -0.79300
C291        C  0.46154963  0.75410911  0.09749799     0.81500
N292        N  0.45115378  0.71745631  0.12114236    -0.81000
C293        C  0.04928524  0.79797677  0.90367932     0.79000
N294        N  0.05967220  0.77171306  0.88003040    -0.79300
C295        C  0.04927592  0.73506095  0.90367470     0.81400
N296        N  0.02800923  0.72448115  0.95123311    -0.79300
C297        C  0.01704619  0.75040289  0.97494535     0.81500
N298        N  0.02801808  0.78728665  0.95123616    -0.81000
O299        O  0.41212170  0.51248963  0.16473823    -0.74200
O300        O  0.45241459  0.62357727  0.09666557    -0.75200
O301        O  0.48749979  0.58786414  0.16473345    -0.63800
O302        O  0.37641215  0.54757878  0.09667085    -0.72200
O303        O  0.35665601  0.56797128  0.16977363    -0.71700
O304        O  0.46774403  0.60825703  0.23783615    -0.63000
O305        O  0.43203426  0.64334584  0.16976805    -0.75500
O306        O  0.39174160  0.53225800  0.23784103    -0.74300
Cu307      Cu  0.43281143  0.56717740  0.12814125     1.04600
Cu308      Cu  0.41134468  0.58865814  0.20636560     1.04300
C309        C  0.39585495  0.50493600  0.21200588     0.92000
C310        C  0.44830142  0.65089912  0.12250025     0.91200
C311        C  0.49506051  0.60413679  0.21200016     0.83300
C312        C  0.34909570  0.55169874  0.12250670     0.89600
C313        C  0.07923579  0.85786083  0.43084500     0.79000
N314        N  0.11588364  0.88411080  0.45449504    -0.79300
C315        C  0.14213787  0.92075965  0.43084250     0.81400
N316        N  0.13144404  0.93133891  0.38327918    -0.79300
C317        C  0.09456562  0.90543265  0.35956415     0.81500
N318        N  0.06865377  0.86855180  0.38328114    -0.81000
C319        C  0.03535383  0.90173916  0.23699582     0.79000
N320        N  0.06160832  0.93838819  0.21334333    -0.79300
C321        C  0.09825619  0.96463814  0.23699310     0.81400
N322        N  0.10883842  0.95394704  0.28455678    -0.79300
C323        C  0.08292654  0.91706618  0.30827361     0.81500
N324        N  0.04604820  0.89116002  0.28455928    -0.81000
C325        C  0.14213766  0.70512274  0.43083241     0.79000
N326        N  0.11587494  0.71550872  0.45448510    -0.79300
C327        C  0.07922360  0.70511040  0.43084053     0.81400
N328        N  0.06864292  0.68384359  0.38327929    -0.79300
C329        C  0.09456404  0.67288163  0.35956264     0.81500
N330        N  0.13144571  0.68385522  0.38327272    -0.81000
C331        C  0.03535343  0.61737667  0.23700608     0.79000
N332        N  0.04604559  0.63864361  0.28456580    -0.79300
C333        C  0.08292630  0.64961667  0.30827659     0.81400
N334        N  0.10884773  0.63865430  0.28455965    -0.79300
C335        C  0.09826693  0.61738803  0.23699837     0.81500
N336        N  0.06161613  0.60699019  0.21335317    -0.81000
O337        O  0.22755048  0.64333834  0.16979224    -0.74200
O338        O  0.15674811  0.53224115  0.23782811    -0.75200
O339        O  0.22753967  0.56794238  0.16978650    -0.63800
O340        O  0.15675847  0.60826129  0.23783342    -0.72200
O341        O  0.11661528  0.58789113  0.16471728    -0.71700
O342        O  0.18739664  0.54757215  0.09667021    -0.63000
O343        O  0.11660445  0.51249501  0.16471275    -0.75500
O344        O  0.18740726  0.62359277  0.09667635    -0.74300
Cu345      Cu  0.19354802  0.58864453  0.20637131     1.04600
Cu346      Cu  0.15060702  0.56718905  0.12813279     1.04300
C347        C  0.21884073  0.65090235  0.12251884     0.92000
C348        C  0.12531480  0.50493169  0.21198603     0.91200
C349        C  0.21882827  0.55168014  0.12251208     0.83300
C350        C  0.12532701  0.60415348  0.21199190     0.89600
O351        O  0.49008345  0.69890720  0.57116215    -0.74200
O352        O  0.06088711  0.81000414  0.50312575    -0.75200
O353        O  0.49009501  0.77492824  0.57116817    -0.63800
O354        O  0.06087544  0.73460778  0.50312148    -0.72200
O355        O  0.02073226  0.71423717  0.43000561    -0.71700
O356        O  0.44995175  0.75455790  0.49805215    -0.63000
O357        O  0.02074344  0.79025801  0.43001025    -0.75500
O358        O  0.44993972  0.67916138  0.49804679    -0.74300
Cu359      Cu  0.02688416  0.75531040  0.53970557     1.04600
Cu360      Cu  0.48394279  0.73385482  0.46146737     1.04300
C361        C  0.45864980  0.67159763  0.54532040     0.92000
C362        C  0.05217652  0.81756709  0.45585145     0.91200
C363        C  0.45866380  0.77082039  0.54532703     0.83300
C364        C  0.05216316  0.71834469  0.45584636     0.89600
C365        C  0.36868930  0.78404241  0.57033946     0.79000
N366        N  0.37938054  0.80530981  0.61789967    -0.79300
C367        C  0.41626138  0.81628301  0.64161018     0.81400
N368        N  0.44218332  0.80532157  0.61789517    -0.79300
C369        C  0.43160312  0.78405485  0.57033313     0.81500
N370        N  0.39495237  0.77365654  0.54668776    -0.81000
C371        C  0.47547107  0.87179081  0.76416782     0.79000
N372        N  0.44920825  0.88217652  0.78781915    -0.79300
C373        C  0.41255757  0.87177816  0.76417452     0.81400
N374        N  0.40197676  0.85051074  0.71661288    -0.79300
C375        C  0.42789795  0.83954905  0.69289752     0.81500
N376        N  0.46477964  0.85052254  0.71660762    -0.81000
O377        O  0.35406613  0.88090580  0.76333919    -0.74200
O378        O  0.28328678  0.92122789  0.83138547    -0.75200
O379        O  0.35407846  0.95692698  0.76334477    -0.63800
O380        O  0.28327426  0.84583105  0.83138101    -0.72200
O381        O  0.32341738  0.86557667  0.90449678    -0.71700
O382        O  0.39422175  0.97667300  0.83646027    -0.63000
O383        O  0.32342938  0.94159796  0.90450174    -0.75500
O384        O  0.39420920  0.90127583  0.83645513    -0.74300
Cu385      Cu  0.31727752  0.90052424  0.79480114     1.04600
Cu386      Cu  0.36021833  0.92197959  0.87303998     1.04300
C387        C  0.38549685  0.88501303  0.78918011     0.92000
C388        C  0.29199833  0.93749052  0.87865975     0.91200
C389        C  0.38551189  0.98423650  0.78918653     0.83300
C390        C  0.29198365  0.83826731  0.87865471     0.89600
C391        C  0.36868841  0.56840539  0.57033068     0.79000
N392        N  0.37938286  0.55782700  0.61789382    -0.79300
C393        C  0.41626075  0.58373322  0.64160834     0.81400
N394        N  0.44217286  0.62061390  0.61789083    -0.79300
C395        C  0.43159124  0.63130494  0.57032725     0.81500
N396        N  0.39494262  0.60505402  0.54667704    -0.81000
C397        C  0.47547226  0.58742897  0.76417684     0.79000
N398        N  0.46477790  0.59800732  0.71661357    -0.79300
C399        C  0.42790040  0.57210107  0.69289867     0.81400
N400        N  0.40198834  0.53522004  0.71661601    -0.79300
C401        C  0.41257051  0.52452948  0.76418012     0.81500
N402        N  0.44921847  0.55078038  0.78783024    -0.78300
O403        O  0.39173721  0.84323450  0.23783954    -0.74200
O404        O  0.43205369  0.77245479  0.16977856    -0.75200
O405        O  0.46775422  0.84324816  0.23782931    -0.63800
O406        O  0.35666094  0.77244030  0.16978889    -0.72200
O407        O  0.37640176  0.81258608  0.09667771    -0.71700
O408        O  0.48749519  0.88339431  0.16471812    -0.63000
O409        O  0.45241914  0.81260039  0.09666686    -0.75500
O410        O  0.41210243  0.88337994  0.16472772    -0.74300
Cu411      Cu  0.41135313  0.80644527  0.20637004     1.04600
Cu412      Cu  0.43280313  0.84938939  0.12813652     1.04300
C413        C  0.39584253  0.87466675  0.21200039     0.92000
C414        C  0.44831459  0.78116863  0.12250405     0.91200
C415        C  0.49506199  0.87468383  0.21198923     0.83300
C416        C  0.34909399  0.78115030  0.12251859     0.89600
C417        C  0.29487666  0.85785894  0.43082832     0.79000
N418        N  0.28448955  0.88412185  0.45447816    -0.79300
C419        C  0.29488552  0.92077443  0.43083377     0.81400
N420        N  0.31615105  0.93135411  0.38327575    -0.79300
C421        C  0.32711429  0.90543335  0.35956232     0.81500
N422        N  0.31614309  0.86854908  0.38327109    -0.81000
C423        C  0.38261546  0.96464133  0.23701268     0.79000
N424        N  0.39300268  0.93837871  0.21336252    -0.79300
C425        C  0.38260718  0.90172637  0.23700790     0.81400
N426        N  0.36134214  0.89114715  0.28456573    -0.79300
C427        C  0.35037887  0.91706819  0.30827955     0.81500
N428        N  0.36134988  0.95395233  0.28456958    -0.81000
O429        O  0.22507111  0.50989885  0.57117301    -0.74200
O430        O  0.26538929  0.93912014  0.50311357    -0.75200
O431        O  0.30108875  0.50991384  0.57116420    -0.63800
O432        O  0.18999602  0.93910511  0.50312148    -0.72200
O433        O  0.20973748  0.97925094  0.43001027    -0.71700
O434        O  0.32083001  0.55005950  0.49805278    -0.63000
O435        O  0.28575486  0.97926581  0.43000179    -0.75500
O436        O  0.24543691  0.55004434  0.49806074    -0.74300
Cu437      Cu  0.24468788  0.97311046  0.53970405     1.04600
Cu438      Cu  0.26613821  0.51605424  0.46147019     1.04300
C439        C  0.22917617  0.54133157  0.54533395     0.92000
C440        C  0.28164969  0.94783358  0.45584060     0.91200
C441        C  0.32839672  0.54134988  0.54532302     0.83300
C442        C  0.18242976  0.94781546  0.45584959     0.89600
C443        C  0.21595088  0.63130700  0.57034296     0.79000
N444        N  0.19468432  0.62061828  0.61789977    -0.79300
C445        C  0.18371280  0.58373409  0.64161029     0.81400
N446        N  0.19467518  0.55781262  0.61789833    -0.79300
C447        C  0.21594144  0.56839097  0.57033986     0.81500
N448        N  0.22633720  0.60504319  0.54669457    -0.81000
C449        C  0.12820946  0.52452817  0.76415988     0.79000
N450        N  0.14947591  0.53521694  0.71660303    -0.79300
C451        C  0.16044745  0.57210037  0.69289302     0.81400
N452        N  0.14948503  0.59802260  0.71660562    -0.79300
C453        C  0.12821902  0.58744377  0.76416379     0.81500
N454        N  0.11782294  0.55079125  0.78780930    -0.81000
O455        O  0.04307144  0.64592085  0.76334336    -0.74200
O456        O  0.15416451  0.71672985  0.83138383    -0.75200
O457        O  0.11908914  0.64593598  0.76333198    -0.63800
O458        O  0.07877113  0.71671439  0.83139461    -0.72200
O459        O  0.05840610  0.67656868  0.90450622    -0.71700
O460        O  0.09872407  0.60579052  0.83644409    -0.63000
O461        O  0.13442356  0.67658397  0.90449450    -0.75500
O462        O  0.02333089  0.60577509  0.83645455    -0.74300
Cu463      Cu  0.09947243  0.68272449  0.79480227     1.04600
Cu464      Cu  0.07802280  0.63978050  0.87303598     1.04300
C465        C  0.01576403  0.61448525  0.78918401     0.92000
C466        C  0.16173096  0.70801972  0.87865453     0.91200
C467        C  0.11498421  0.61450363  0.78917089     0.83300
C468        C  0.06251102  0.70800138  0.87866782     0.89600
C469        C  0.74589936  0.19119566  0.09751296     0.79000
N470        N  0.73531836  0.20188741  0.04994908    -0.79300
C471        C  0.76123082  0.23876879  0.02623248     0.81400
N472        N  0.79810849  0.26467428  0.04994804    -0.79300
C473        C  0.80880238  0.25409522  0.09751159     0.81500
N474        N  0.78254761  0.21744614  0.12116354    -0.81000
C475        C  0.76492460  0.29797434  0.90366124     0.79000
N476        N  0.72827705  0.27172423  0.88000970    -0.79300
C477        C  0.70202246  0.23507514  0.90366263     0.81400
N478        N  0.71271512  0.22449618  0.95122541    -0.79300
C479        C  0.74959316  0.25040206  0.97494277     0.81500
N480        N  0.77550538  0.28728311  0.95122532    -0.81000
O481        O  0.68999174  0.23463588  0.50310485    -0.74200
O482        O  0.80107948  0.27492169  0.57116856    -0.75200
O483        O  0.76536961  0.31001041  0.50310110    -0.63800
O484        O  0.72507723  0.19892276  0.57117135    -0.72200
O485        O  0.74545804  0.17915478  0.49806856    -0.71700
O486        O  0.78575047  0.29024272  0.42999816    -0.63000
O487        O  0.82083611  0.25452969  0.49806581    -0.75500
O488        O  0.70974771  0.21424367  0.43000162    -0.74300
Cu489      Cu  0.74468007  0.25532270  0.53969710     1.04600
Cu490      Cu  0.76614751  0.23384273  0.46147273     1.04300
C491        C  0.68243112  0.21836303  0.45583714     0.92000
C492        C  0.82839585  0.27080209  0.54533303     0.91200
C493        C  0.78163704  0.31756481  0.45583349     0.83300
C494        C  0.72919046  0.17160117  0.54533713     0.89600
O495        O  0.61908311  0.45691151  0.76333147    -0.74200
O496        O  0.57879200  0.34582428  0.83140484    -0.75200
O497        O  0.54308113  0.38091192  0.76333697    -0.63800
O498        O  0.65416989  0.42119932  0.83139819    -0.72200
O499        O  0.63441412  0.44159203  0.90450094    -0.71700
O500        O  0.52332519  0.40130481  0.83643981    -0.63000
O501        O  0.55841193  0.36559294  0.90450727    -0.75500
O502        O  0.59870309  0.47668010  0.83643444    -0.74300
Cu503      Cu  0.59948089  0.40051169  0.79480702     1.04600
Cu504      Cu  0.57801428  0.42199248  0.87303139     1.04300
C505        C  0.61496977  0.48423311  0.78916612     0.92000
C506        C  0.56252489  0.33827068  0.87867310     0.91200
C507        C  0.51576477  0.38503151  0.78917249     0.83300
C508        C  0.66173074  0.43747248  0.87866486     0.89600
C509        C  0.80880292  0.03845843  0.09749987     0.79000
N510        N  0.79811230  0.01719218  0.04994041    -0.79300
C511        C  0.76123155  0.00621866  0.02622779     0.81400
N512        N  0.73530961  0.01718046  0.04994397    -0.79300
C513        C  0.74588854  0.03844609  0.09750534     0.81500
N514        N  0.78253956  0.04884439  0.12115220    -0.81000
C515        C  0.70202372  0.45071318  0.90367070     0.79000
N516        N  0.72828726  0.44032702  0.88001869    -0.79300
C517        C  0.76493799  0.45072553  0.90366550     0.81400
N518        N  0.77551757  0.47199208  0.95122621    -0.79300
C519        C  0.74959596  0.48295424  0.97494201     0.81500
N520        N  0.71271516  0.47198065  0.95122991    -0.81000
C521        C  0.96154098  0.19119389  0.09749401     0.79000
N522        N  0.98280835  0.20188356  0.04993718    -0.79300
C523        C  0.99378004  0.23876726  0.02622770     0.81400
N524        N  0.98281632  0.26468896  0.04994041    -0.79300
C525        C  0.96154965  0.25410856  0.09749829     0.81500
N526        N  0.95115379  0.21745663  0.12114239    -0.81000
C527        C  0.54928521  0.29797683  0.90367934     0.79000
N528        N  0.55967220  0.27171278  0.88003033    -0.79300
C529        C  0.54927578  0.23506117  0.90367489     0.81400
N530        N  0.52800931  0.22448119  0.95123289    -0.79300
C531        C  0.51704596  0.25040272  0.97494568     0.81500
N532        N  0.52801814  0.28728664  0.95123595    -0.81000
O533        O  0.91212166  0.01248961  0.16473819    -0.74200
O534        O  0.95241445  0.12357727  0.09666573    -0.75200
O535        O  0.98749992  0.08786413  0.16473323    -0.63800
O536        O  0.87641215  0.04757872  0.09667082    -0.72200
O537        O  0.85665604  0.06797133  0.16977355    -0.71700
O538        O  0.96774421  0.10825695  0.23783603    -0.63000
O539        O  0.93203418  0.14334574  0.16976822    -0.75500
O540        O  0.89174146  0.03225803  0.23784110    -0.74300
Cu541      Cu  0.93281136  0.06717740  0.12814122     1.04600
Cu542      Cu  0.91134462  0.08865814  0.20636554     1.04300
C543        C  0.89585494  0.00493598  0.21200589     0.92000
C544        C  0.94830154  0.15089931  0.12249993     0.91200
C545        C  0.99506020  0.10413683  0.21200029     0.83300
C546        C  0.84909551  0.05169881  0.12250686     0.89600
C547        C  0.57923544  0.35786053  0.43084442     0.79000
N548        N  0.61588366  0.38411084  0.45449519    -0.79300
C549        C  0.64213815  0.42075976  0.43084235     0.81400
N550        N  0.63144412  0.43133902  0.38327929    -0.79300
C551        C  0.59456514  0.40543214  0.35956379     0.81500
N552        N  0.56865407  0.36855201  0.38328140    -0.81000
C553        C  0.53535377  0.40173911  0.23699606     0.79000
N554        N  0.56160812  0.43838810  0.21334316    -0.79300
C555        C  0.59825640  0.46463827  0.23699340     0.81400
N556        N  0.60883814  0.45394673  0.28455664    -0.79300
C557        C  0.58292724  0.41706671  0.30827392     0.81500
N558        N  0.54604804  0.39115986  0.28455904    -0.81000
C559        C  0.64213794  0.20512283  0.43083257     0.79000
N560        N  0.61587485  0.21550874  0.45448519    -0.79300
C561        C  0.57922367  0.20511034  0.43084047     0.81400
N562        N  0.56864281  0.18384360  0.38327931    -0.79300
C563        C  0.59456424  0.17288162  0.35956264     0.81500
N564        N  0.63144525  0.18385506  0.38327241    -0.81000
C565        C  0.53535344  0.11737672  0.23700622     0.79000
N566        N  0.54604541  0.13864354  0.28456565    -0.79300
C567        C  0.58292637  0.14961670  0.30827664     0.81400
N568        N  0.60884765  0.13865428  0.28455962    -0.79300
C569        C  0.59826677  0.11738808  0.23699847     0.81500
N570        N  0.56161596  0.10699016  0.21335309    -0.81000
O571        O  0.72755048  0.14333840  0.16979225    -0.74200
O572        O  0.65674816  0.03224120  0.23782818    -0.75200
O573        O  0.72753949  0.06794237  0.16978643    -0.63800
O574        O  0.65675827  0.10826127  0.23783337    -0.72200
O575        O  0.61661522  0.08789114  0.16471733    -0.71700
O576        O  0.68739659  0.04757215  0.09667018    -0.63000
O577        O  0.61660463  0.01249505  0.16471285    -0.75500
O578        O  0.68740739  0.12359280  0.09667641    -0.74300
Cu579      Cu  0.69354800  0.08864456  0.20637138     1.04600
Cu580      Cu  0.65060699  0.06718904  0.12813275     1.04300
C581        C  0.71884063  0.15090231  0.12251874     0.92000
C582        C  0.62531465  0.00493161  0.21198584     0.91200
C583        C  0.71882845  0.05168014  0.12251208     0.83300
C584        C  0.62532717  0.10415341  0.21199174     0.89600
O585        O  0.99008347  0.19890718  0.57116210    -0.74200
O586        O  0.56088699  0.31000412  0.50312552    -0.75200
O587        O  0.99009494  0.27492814  0.57116801    -0.63800
O588        O  0.56087544  0.23460778  0.50312157    -0.72200
O589        O  0.52073211  0.21423717  0.43000559    -0.71700
O590        O  0.94995178  0.25455777  0.49805193    -0.63000
O591        O  0.52074332  0.29025790  0.43001000    -0.75500
O592        O  0.94993977  0.17916133  0.49804670    -0.74300
Cu593      Cu  0.52688411  0.25531041  0.53970562     1.04600
Cu594      Cu  0.98394284  0.23385483  0.46146737     1.04300
C595        C  0.95865007  0.17159773  0.54532066     0.92000
C596        C  0.55217693  0.31756732  0.45585213     0.91200
C597        C  0.95866378  0.27082054  0.54532748     0.83300
C598        C  0.55216312  0.21834463  0.45584626     0.89600
C599        C  0.86868965  0.28404237  0.57033936     0.79000
N600        N  0.87938045  0.30530981  0.61789973    -0.79300
C601        C  0.91626129  0.31628304  0.64161026     0.81400
N602        N  0.94218332  0.30532149  0.61789499    -0.79300
C603        C  0.93160320  0.28405493  0.57033333     0.81500
N604        N  0.89495207  0.27365648  0.54668764    -0.81000
C605        C  0.97547106  0.37179077  0.76416773     0.79000
N606        N  0.94920817  0.38217644  0.78781898    -0.79300
C607        C  0.91255715  0.37177830  0.76417481     0.81400
N608        N  0.90197677  0.35051065  0.71661270    -0.79300
C609        C  0.92789826  0.33954908  0.69289759     0.81500
N610        N  0.96477952  0.35052254  0.71660762    -0.81000
O611        O  0.85406606  0.38090576  0.76333918    -0.74200
O612        O  0.78328686  0.42122791  0.83138551    -0.75200
O613        O  0.85407866  0.45692713  0.76334491    -0.63800
O614        O  0.78327407  0.34583101  0.83138091    -0.72200
O615        O  0.82341719  0.36557651  0.90449659    -0.71700
O616        O  0.89422192  0.47667295  0.83646041    -0.63000
O617        O  0.82342946  0.44159799  0.90450176    -0.75500
O618        O  0.89420909  0.40127582  0.83645514    -0.74300
Cu619      Cu  0.81727749  0.40052426  0.79480117     1.04600
Cu620      Cu  0.86021841  0.42197956  0.87303994     1.04300
C621        C  0.88549702  0.38501292  0.78917989     0.92000
C622        C  0.79199839  0.43749058  0.87865981     0.91200
C623        C  0.88551173  0.48423643  0.78918649     0.83300
C624        C  0.79198406  0.33826752  0.87865478     0.89600
C625        C  0.86868834  0.06840526  0.57033038     0.79000
N626        N  0.87938320  0.05782714  0.61789406    -0.79300
C627        C  0.91626043  0.08373273  0.64160835     0.81400
N628        N  0.94217313  0.12061414  0.61789084    -0.79300
C629        C  0.93159108  0.13130473  0.57032698     0.81500
N630        N  0.89494293  0.10505415  0.54667714    -0.81000
C631        C  0.97547236  0.08742909  0.76417704     0.79000
N632        N  0.96477788  0.09800723  0.71661348    -0.79300
C633        C  0.92790073  0.07210142  0.69289878     0.81400
N634        N  0.90198825  0.03521990  0.71661589    -0.79300
C635        C  0.91257077  0.02452966  0.76418059     0.81500
N636        N  0.94921825  0.05078020  0.78783013    -0.78300
O637        O  0.89173725  0.34323449  0.23783939    -0.74200
O638        O  0.93205382  0.27245472  0.16977827    -0.75200
O639        O  0.96775418  0.34324816  0.23782937    -0.63800
O640        O  0.85666097  0.27244035  0.16978893    -0.72200
O641        O  0.87640192  0.31258620  0.09667764    -0.71700
O642        O  0.98749525  0.38339424  0.16471808    -0.63000
O643        O  0.95241927  0.31260040  0.09666682    -0.75500
O644        O  0.91210261  0.38337995  0.16472758    -0.74300
Cu645      Cu  0.91135307  0.30644529  0.20637007     1.04600
Cu646      Cu  0.93280316  0.34938933  0.12813648     1.04300
C647        C  0.89584234  0.37466668  0.21200062     0.92000
C648        C  0.94831438  0.28116889  0.12250431     0.91200
C649        C  0.99506200  0.37468384  0.21198927     0.83300
C650        C  0.84909366  0.28115009  0.12251838     0.89600
C651        C  0.79487665  0.35785891  0.43082802     0.79000
N652        N  0.78448961  0.38412196  0.45447814    -0.79300
C653        C  0.79488528  0.42077463  0.43083398     0.81400
N654        N  0.81615128  0.43135410  0.38327558    -0.79300
C655        C  0.82711436  0.40543336  0.35956215     0.81500
N656        N  0.81614305  0.36854910  0.38327134    -0.81000
C657        C  0.88261542  0.46464140  0.23701243     0.79000
N658        N  0.89300271  0.43837881  0.21336251    -0.79300
C659        C  0.88260714  0.40172623  0.23700784     0.81400
N660        N  0.86134225  0.39114706  0.28456570    -0.79300
C661        C  0.85037886  0.41706839  0.30827950     0.81500
N662        N  0.86134993  0.45395213  0.28456968    -0.81000
O663        O  0.72507117  0.00989898  0.57117297    -0.74200
O664        O  0.76538928  0.43912027  0.50311337    -0.75200
O665        O  0.80108881  0.00991381  0.57116409    -0.63800
O666        O  0.68999612  0.43910517  0.50312147    -0.72200
O667        O  0.70973763  0.47925097  0.43001022    -0.71700
O668        O  0.82083003  0.05005948  0.49805269    -0.63000
O669        O  0.78575489  0.47926587  0.43000182    -0.75500
O670        O  0.74543706  0.05004450  0.49806086    -0.74300
Cu671      Cu  0.74468779  0.47311042  0.53970403     1.04600
Cu672      Cu  0.76613838  0.01605438  0.46147029     1.04300
C673        C  0.72917643  0.04133155  0.54533399     0.92000
C674        C  0.78164971  0.44783341  0.45584072     0.91200
C675        C  0.82839702  0.04134999  0.54532310     0.83300
C676        C  0.68242951  0.44781538  0.45584967     0.89600
C677        C  0.71595087  0.13130687  0.57034259     0.79000
N678        N  0.69468424  0.12061828  0.61789983    -0.79300
C679        C  0.68371271  0.08373392  0.64161009     0.81400
N680        N  0.69467527  0.05781269  0.61789834    -0.79300
C681        C  0.71594151  0.06839104  0.57033968     0.81500
N682        N  0.72633726  0.10504330  0.54669468    -0.81000
C683        C  0.62820941  0.02452820  0.76416007     0.79000
N684        N  0.64947591  0.03521667  0.71660295    -0.79300
C685        C  0.66044725  0.07210072  0.69289325     0.81400
N686        N  0.64948503  0.09802246  0.71660541    -0.79300
C687        C  0.62821898  0.08744372  0.76416394     0.81500
N688        N  0.61782302  0.05079121  0.78780919    -0.81000
O689        O  0.54307136  0.14592085  0.76334329    -0.74200
O690        O  0.65416439  0.21672982  0.83138345    -0.75200
O691        O  0.61908917  0.14593611  0.76333202    -0.63800
O692        O  0.57877106  0.21671441  0.83139490    -0.72200
O693        O  0.55840602  0.17656865  0.90450630    -0.71700
O694        O  0.59872404  0.10579048  0.83644404    -0.63000
O695        O  0.63442360  0.17658411  0.90449441    -0.75500
O696        O  0.52333079  0.10577512  0.83645454    -0.74300
Cu697      Cu  0.59947252  0.18272447  0.79480227     1.04600
Cu698      Cu  0.57802270  0.13978051  0.87303595     1.04300
C699        C  0.51576405  0.11448515  0.78918406     0.92000
C700        C  0.66173101  0.20801965  0.87865504     0.91200
C701        C  0.61498424  0.11450355  0.78917078     0.83300
C702        C  0.56251118  0.20800123  0.87866739     0.89600
C703        C  0.74589914  0.69119562  0.09751247     0.79000
N704        N  0.73531863  0.70188754  0.04994936    -0.79300
C705        C  0.76123052  0.73876852  0.02623233     0.81400
N706        N  0.79810860  0.76467426  0.04994835    -0.79300
C707        C  0.80880277  0.75409564  0.09751145     0.81500
N708        N  0.78254755  0.71744590  0.12116380    -0.81000
C709        C  0.76492448  0.79797430  0.90366103     0.79000
N710        N  0.72827744  0.77172445  0.88000990    -0.79300
C711        C  0.70202210  0.73507508  0.90366209     0.81400
N712        N  0.71271530  0.72449613  0.95122582    -0.79300
C713        C  0.74959316  0.75040231  0.97494235     0.81500
N714        N  0.77550538  0.78728291  0.95122568    -0.81000
O715        O  0.68999175  0.73463589  0.50310481    -0.74200
O716        O  0.80107934  0.77492171  0.57116858    -0.75200
O717        O  0.76536963  0.81001041  0.50310114    -0.63800
O718        O  0.72507726  0.69892284  0.57117149    -0.72200
O719        O  0.74545801  0.67915481  0.49806867    -0.71700
O720        O  0.78575044  0.79024273  0.42999818    -0.63000
O721        O  0.82083601  0.75452963  0.49806600    -0.75500
O722        O  0.70974765  0.71424355  0.43000166    -0.74300
Cu723      Cu  0.74468012  0.75532270  0.53969711     1.04600
Cu724      Cu  0.76614746  0.73384254  0.46147277     1.04300
C725        C  0.68243135  0.71836297  0.45583712     0.92000
C726        C  0.82839601  0.77080203  0.54533303     0.91200
C727        C  0.78163705  0.81756474  0.45583333     0.83300
C728        C  0.72919056  0.67160104  0.54533689     0.89600
O729        O  0.61908314  0.95691155  0.76333149    -0.74200
O730        O  0.57879197  0.84582432  0.83140498    -0.75200
O731        O  0.54308110  0.88091191  0.76333701    -0.63800
O732        O  0.65416992  0.92119936  0.83139822    -0.72200
O733        O  0.63441414  0.94159203  0.90450102    -0.71700
O734        O  0.52332516  0.90130484  0.83643976    -0.63000
O735        O  0.55841173  0.86559307  0.90450743    -0.75500
O736        O  0.59870304  0.97668009  0.83643437    -0.74300
Cu737      Cu  0.59948089  0.90051172  0.79480707     1.04600
Cu738      Cu  0.57801414  0.92199245  0.87303131     1.04300
C739        C  0.61496980  0.98423319  0.78916612     0.92000
C740        C  0.56252495  0.83827055  0.87867277     0.91200
C741        C  0.51576486  0.88503152  0.78917244     0.83300
C742        C  0.66173055  0.93747244  0.87866475     0.89600
C743        C  0.80880312  0.53845845  0.09749988     0.79000
N744        N  0.79811229  0.51719216  0.04994034    -0.79300
C745        C  0.76123157  0.50621867  0.02622781     0.81400
N746        N  0.73530963  0.51718049  0.04994404    -0.79300
C747        C  0.74588871  0.53844604  0.09750523     0.81500
N748        N  0.78253948  0.54884441  0.12115222    -0.81000
C749        C  0.70202376  0.95071323  0.90367084     0.79000
N750        N  0.72828714  0.94032709  0.88001881    -0.79300
C751        C  0.76493791  0.95072546  0.90366534     0.81400
N752        N  0.77551772  0.97199206  0.95122615    -0.79300
C753        C  0.74959569  0.98295424  0.97494198     0.81500
N754        N  0.71271501  0.97198057  0.95122973    -0.81000
C755        C  0.96154091  0.69119398  0.09749383     0.79000
N756        N  0.98280834  0.70188363  0.04993716    -0.79300
C757        C  0.99377999  0.73876703  0.02622754     0.81400
N758        N  0.98281629  0.76468897  0.04994055    -0.79300
C759        C  0.96154964  0.75410894  0.09749786     0.81500
N760        N  0.95115373  0.71745646  0.12114253    -0.81000
C761        C  0.54928520  0.79797667  0.90367927     0.79000
N762        N  0.55967211  0.77171311  0.88003043    -0.79300
C763        C  0.54927592  0.73506088  0.90367455     0.81400
N764        N  0.52800915  0.72448125  0.95123318    -0.79300
C765        C  0.51704613  0.75040264  0.97494534     0.81500
N766        N  0.52801804  0.78728677  0.95123612    -0.81000
O767        O  0.91212162  0.51248965  0.16473820    -0.74200
O768        O  0.95241451  0.62357723  0.09666560    -0.75200
O769        O  0.98749986  0.58786413  0.16473335    -0.63800
O770        O  0.87641224  0.54757877  0.09667079    -0.72200
O771        O  0.85665610  0.56797133  0.16977357    -0.71700
O772        O  0.96774413  0.60825699  0.23783616    -0.63000
O773        O  0.93203428  0.64334583  0.16976791    -0.75500
O774        O  0.89174148  0.53225795  0.23784101    -0.74300
Cu775      Cu  0.93281141  0.56717741  0.12814124     1.04600
Cu776      Cu  0.91134466  0.58865815  0.20636559     1.04300
C777        C  0.89585496  0.50493604  0.21200605     0.92000
C778        C  0.94830140  0.65089921  0.12250046     0.91200
C779        C  0.99506053  0.60413674  0.21200005     0.83300
C780        C  0.84909549  0.55169883  0.12250687     0.89600
C781        C  0.57923547  0.85786055  0.43084472     0.79000
N782        N  0.61588357  0.88411073  0.45449510    -0.79300
C783        C  0.64213808  0.92075974  0.43084238     0.81400
N784        N  0.63144404  0.93133900  0.38327915    -0.79300
C785        C  0.59456530  0.90543220  0.35956412     0.81500
N786        N  0.56865406  0.86855210  0.38328115    -0.81000
C787        C  0.53535375  0.90173913  0.23699603     0.79000
N788        N  0.56160824  0.93838814  0.21334326    -0.79300
C789        C  0.59825646  0.96463829  0.23699335     0.81400
N790        N  0.60883825  0.95394679  0.28455677    -0.79300
C791        C  0.58292700  0.91706668  0.30827363     0.81500
N792        N  0.54604807  0.89115992  0.28455913    -0.81000
C793        C  0.64213738  0.70512276  0.43083247     0.79000
N794        N  0.61587518  0.71550881  0.45448530    -0.79300
C795        C  0.57922355  0.70511021  0.43084013     0.81400
N796        N  0.56864310  0.68384366  0.38327943    -0.79300
C797        C  0.59456357  0.67288159  0.35956255     0.81500
N798        N  0.63144578  0.68385516  0.38327259    -0.81000
C799        C  0.53535359  0.61737657  0.23700583     0.79000
N800        N  0.54604530  0.63864367  0.28456597    -0.79300
C801        C  0.58292686  0.64961667  0.30827659     0.81400
N802        N  0.60884735  0.63865421  0.28455944    -0.79300
C803        C  0.59826718  0.61738819  0.23699873     0.81500
N804        N  0.56161579  0.60699016  0.21335310    -0.81000
O805        O  0.72755049  0.64333839  0.16979215    -0.74200
O806        O  0.65674818  0.53224123  0.23782822    -0.75200
O807        O  0.72753955  0.56794239  0.16978644    -0.63800
O808        O  0.65675834  0.60826128  0.23783344    -0.72200
O809        O  0.61661519  0.58789115  0.16471718    -0.71700
O810        O  0.68739664  0.54757212  0.09667023    -0.63000
O811        O  0.61660453  0.51249502  0.16471279    -0.75500
O812        O  0.68740739  0.62359277  0.09667635    -0.74300
Cu813      Cu  0.69354802  0.58864456  0.20637135     1.04600
Cu814      Cu  0.65060707  0.56718905  0.12813275     1.04300
C815        C  0.71884085  0.65090238  0.12251904     0.92000
C816        C  0.62531474  0.50493164  0.21198580     0.91200
C817        C  0.71882842  0.55168014  0.12251207     0.83300
C818        C  0.62532705  0.60415344  0.21199174     0.89600
O819        O  0.99008363  0.69890727  0.57116217    -0.74200
O820        O  0.56088694  0.81000411  0.50312548    -0.75200
O821        O  0.99009480  0.77492821  0.57116806    -0.63800
O822        O  0.56087550  0.73460779  0.50312158    -0.72200
O823        O  0.52073219  0.71423716  0.43000559    -0.71700
O824        O  0.94995159  0.75455777  0.49805184    -0.63000
O825        O  0.52074323  0.79025794  0.43001008    -0.75500
O826        O  0.94993989  0.67916139  0.49804674    -0.74300
Cu827      Cu  0.52688409  0.75531039  0.53970556     1.04600
Cu828      Cu  0.98394285  0.73385482  0.46146737     1.04300
C829        C  0.95864979  0.67159762  0.54532072     0.92000
C830        C  0.55217690  0.81756726  0.45585193     0.91200
C831        C  0.95866410  0.77082052  0.54532754     0.83300
C832        C  0.55216302  0.71834468  0.45584640     0.89600
C833        C  0.86868909  0.78404226  0.57033913     0.79000
N834        N  0.87938074  0.80530995  0.61790002    -0.79300
C835        C  0.91626079  0.81628301  0.64161017     0.81400
N836        N  0.94218337  0.80532138  0.61789474    -0.79300
C837        C  0.93160303  0.78405495  0.57033336     0.81500
N838        N  0.89495236  0.77365653  0.54668773    -0.81000
C839        C  0.97547119  0.87179063  0.76416738     0.79000
N840        N  0.94920788  0.88217649  0.78781909    -0.79300
C841        C  0.91255775  0.87177835  0.76417497     0.81400
N842        N  0.90197633  0.85051069  0.71661274    -0.79300
C843        C  0.92789876  0.83954907  0.69289758     0.81500
N844        N  0.96477936  0.85052267  0.71660792    -0.81000
O845        O  0.85406603  0.88090581  0.76333916    -0.74200
O846        O  0.78328687  0.92122782  0.83138529    -0.75200
O847        O  0.85407860  0.95692713  0.76334488    -0.63800
O848        O  0.78327419  0.84583097  0.83138114    -0.72200
O849        O  0.82341731  0.86557659  0.90449689    -0.71700
O850        O  0.89422181  0.97667305  0.83646044    -0.63000
O851        O  0.82342938  0.94159790  0.90450160    -0.75500
O852        O  0.89420911  0.90127582  0.83645507    -0.74300
Cu853      Cu  0.81727744  0.90052426  0.79480112     1.04600
Cu854      Cu  0.86021830  0.92197959  0.87303999     1.04300
C855        C  0.88549672  0.88501298  0.78917990     0.92000
C856        C  0.79199814  0.93749069  0.87866015     0.91200
C857        C  0.88551157  0.98423632  0.78918615     0.83300
C858        C  0.79198381  0.83826747  0.87865448     0.89600
C859        C  0.86868820  0.56840515  0.57033035     0.79000
N860        N  0.87938308  0.55782719  0.61789403    -0.79300
C861        C  0.91626052  0.58373296  0.64160825     0.81400
N862        N  0.94217299  0.62061399  0.61789128    -0.79300
C863        C  0.93159109  0.63130474  0.57032687     0.81500
N864        N  0.89494292  0.60505421  0.54667733    -0.81000
C865        C  0.97547249  0.58742917  0.76417689     0.79000
N866        N  0.96477786  0.59800723  0.71661366    -0.79300
C867        C  0.92790069  0.57210138  0.69289888     0.81400
N868        N  0.90198835  0.53521996  0.71661624    -0.79300
C869        C  0.91257048  0.52452954  0.76417994     0.81500
N870        N  0.94921847  0.55078032  0.78783039    -0.78300
O871        O  0.89173724  0.84323442  0.23783951    -0.74200
O872        O  0.93205367  0.77245481  0.16977846    -0.75200
O873        O  0.96775416  0.84324806  0.23782930    -0.63800
O874        O  0.85666108  0.77244038  0.16978911    -0.72200
O875        O  0.87640200  0.81258622  0.09667782    -0.71700
O876        O  0.98749519  0.88339430  0.16471813    -0.63000
O877        O  0.95241917  0.81260044  0.09666677    -0.75500
O878        O  0.91210243  0.88337988  0.16472766    -0.74300
Cu879      Cu  0.91135310  0.80644530  0.20637008     1.04600
Cu880      Cu  0.93280304  0.84938936  0.12813645     1.04300
C881        C  0.89584237  0.87466677  0.21200045     0.92000
C882        C  0.94831451  0.78116854  0.12250420     0.91200
C883        C  0.99506205  0.87468389  0.21198932     0.83300
C884        C  0.84909342  0.78115003  0.12251819     0.89600
C885        C  0.79487665  0.85785888  0.43082808     0.79000
N886        N  0.78448954  0.88412188  0.45447821    -0.79300
C887        C  0.79488533  0.92077460  0.43083394     0.81400
N888        N  0.81615120  0.93135413  0.38327563    -0.79300
C889        C  0.82711437  0.90543330  0.35956215     0.81500
N890        N  0.81614299  0.86854916  0.38327128    -0.81000
C891        C  0.88261547  0.96464146  0.23701264     0.79000
N892        N  0.89300274  0.93837869  0.21336243    -0.79300
C893        C  0.88260711  0.90172637  0.23700787     0.81400
N894        N  0.86134214  0.89114707  0.28456578    -0.79300
C895        C  0.85037881  0.91706833  0.30827962     0.81500
N896        N  0.86134996  0.95395221  0.28456957    -0.81000
O897        O  0.72507109  0.50989893  0.57117308    -0.74200
O898        O  0.76538919  0.93912023  0.50311348    -0.75200
O899        O  0.80108880  0.50991383  0.57116424    -0.63800
O900        O  0.68999607  0.93910517  0.50312138    -0.72200
O901        O  0.70973745  0.97925091  0.43001028    -0.71700
O902        O  0.82083018  0.55005945  0.49805288    -0.63000
O903        O  0.78575489  0.97926599  0.43000180    -0.75500
O904        O  0.74543698  0.55004447  0.49806095    -0.74300
Cu905      Cu  0.74468783  0.97311050  0.53970406     1.04600
Cu906      Cu  0.76613831  0.51605426  0.46147021     1.04300
C907        C  0.72917653  0.54133154  0.54533371     0.92000
C908        C  0.78164991  0.94783346  0.45584067     0.91200
C909        C  0.82839676  0.54134991  0.54532274     0.83300
C910        C  0.68242982  0.94781561  0.45584977     0.89600
C911        C  0.71595085  0.63130675  0.57034280     0.79000
N912        N  0.69468425  0.62061821  0.61790015    -0.79300
C913        C  0.68371283  0.58373406  0.64161005     0.81400
N914        N  0.69467540  0.55781268  0.61789823    -0.79300
C915        C  0.71594135  0.56839096  0.57033994     0.81500
N916        N  0.72633734  0.60504332  0.54669469    -0.81000
C917        C  0.62820938  0.52452825  0.76416013     0.79000
N918        N  0.64947589  0.53521668  0.71660291    -0.79300
C919        C  0.66044732  0.57210082  0.69289342     0.81400
N920        N  0.64948503  0.59802241  0.71660538    -0.79300
C921        C  0.62821896  0.58744365  0.76416402     0.81500
N922        N  0.61782288  0.55079106  0.78780914    -0.81000
O923        O  0.54307135  0.64592088  0.76334332    -0.74200
O924        O  0.65416441  0.71672986  0.83138360    -0.75200
O925        O  0.61908908  0.64593601  0.76333206    -0.63800
O926        O  0.57877109  0.71671438  0.83139461    -0.72200
O927        O  0.55840603  0.67656867  0.90450620    -0.71700
O928        O  0.59872405  0.60579048  0.83644421    -0.63000
O929        O  0.63442354  0.67658406  0.90449440    -0.75500
O930        O  0.52333081  0.60577508  0.83645449    -0.74300
Cu931      Cu  0.59947238  0.68272446  0.79480226     1.04600
Cu932      Cu  0.57802275  0.63978052  0.87303598     1.04300
C933        C  0.51576406  0.61448517  0.78918404     0.92000
C934        C  0.66173105  0.70801966  0.87865510     0.91200
C935        C  0.61498425  0.61450362  0.78917055     0.83300
C936        C  0.56251094  0.70800140  0.87866779     0.89600
loop_ 
_geom_bond_atom_site_label_1 
_geom_bond_atom_site_label_2 
_geom_bond_distance 
_geom_bond_site_symmetry_2 
_ccdc_geom_bond_type 
C1            N2   1.359       .  A
C1            N6   1.356       .  A
C1          C113   1.468       .  S
N2            C3   1.360       .  A
C3            N4   1.360       .  A
C3           C11   1.470   1_554  S
N4            C5   1.359       .  A
C5            N6   1.357       .  A
C5          C182   1.467       .  S
C7            N8   1.356       .  A
C7           N12   1.359       .  A
C7          C156   1.468       .  S
N8            C9   1.356       .  A
C9           N10   1.359       .  A
C9          C232   1.467       .  S
N10          C11   1.360       .  A
C11          N12   1.360       .  A
O13         Cu21   2.005       .  S
O13          C23   1.278       .  A
O14         Cu21   2.012       .  S
O14          C24   1.278       .  A
O15         Cu21   2.005       .  S
O15          C25   1.278       .  A
O16         Cu21   2.012       .  S
O16          C26   1.278       .  A
O17         Cu22   2.005       .  S
O17          C26   1.278       .  A
O18         Cu22   2.012       .  S
O18          C25   1.278       .  A
O19         Cu22   2.005       .  S
O19          C24   1.278       .  A
O20         Cu22   2.012       .  S
O20          C23   1.278       .  A
Cu21        Cu22   2.376       .  S
C23          C91   1.467       .  S
C24         C131   1.467       .  S
C25         C183   1.467       .  S
C26         C209   1.467       .  S
O27         Cu35   2.012       .  S
O27          C37   1.278       .  A
O28         Cu35   2.005       .  S
O28          C38   1.278       .  A
O29         Cu35   2.012       .  S
O29          C39   1.278       .  A
O30         Cu35   2.005       .  S
O30          C40   1.278       .  A
O31         Cu36   2.012       .  S
O31          C40   1.278       .  A
O32         Cu36   2.005       .  S
O32          C39   1.278       .  A
O33         Cu36   2.012       .  S
O33          C38   1.278       .  A
O34         Cu36   2.005       .  S
O34          C37   1.278       .  A
Cu35        Cu36   2.376       .  S
C37         C449   1.467       .  S
C38          C59   1.467       .  S
C39         C605   1.467   1_455  S
C40          C47   1.467       .  S
C41          N42   1.359       .  A
C41          N46   1.356       .  A
C41          C78   1.467       .  S
N42          C43   1.360       .  A
C43          N44   1.360       .  A
C43         C285   1.470   1_544  S
N44          C45   1.359       .  A
C45          N46   1.356       .  A
C45         C115   1.468       .  S
C47          N48   1.356       .  A
C47          N52   1.359       .  A
N48          C49   1.356       .  A
C49          N50   1.359       .  A
C49         C154   1.468       .  S
N50          C51   1.360       .  A
C51          N52   1.360       .  A
C51         C277   1.470   1_556  S
C53          N54   1.359       .  A
C53          N58   1.356       .  A
C53          C76   1.467       .  S
N54          C55   1.360       .  A
C55          N56   1.360       .  A
C55         C531   1.471   1_554  S
N56          C57   1.359       .  A
C57          N58   1.356       .  A
C57         C180   1.467       .  S
C59          N60   1.356       .  A
C59          N64   1.359       .  A
N60          C61   1.356       .  A
C61          N62   1.359       .  A
C61         C234   1.468       .  S
N62          C63   1.360       .  A
C63          N64   1.360       .  A
C63         C523   1.471   1_456  S
O65         Cu73   2.005       .  S
O65          C75   1.278       .  A
O66         Cu73   2.012       .  S
O66          C76   1.278       .  A
O67         Cu73   2.005       .  S
O67          C77   1.278       .  A
O68         Cu73   2.012       .  S
O68          C78   1.278       .  A
O69         Cu74   2.005       .  S
O69          C78   1.278       .  A
O70         Cu74   2.012       .  S
O70          C77   1.278       .  A
O71         Cu74   2.005       .  S
O71          C76   1.278       .  A
O72         Cu74   2.012       .  S
O72          C75   1.278       .  A
Cu73        Cu74   2.376       .  S
C75         C423   1.467   1_545  S
C77         C565   1.467       .  S
C79          N80   1.356       .  A
C79          N84   1.359       .  A
C79         C128   1.468       .  S
N80          C81   1.356       .  A
C81          N82   1.359       .  A
C81         C208   1.468       .  S
N82          C83   1.360       .  A
C83          N84   1.360       .  A
C83          C89   1.471       .  S
C85          N86   1.356       .  A
C85          N90   1.359       .  A
C85         C649   1.467   1_455  S
N86          C87   1.356       .  A
C87          N88   1.359       .  A
C87         C348   1.468       .  S
N88          C89   1.360       .  A
C89          N90   1.360       .  A
C91          N92   1.356       .  A
C91          N96   1.359       .  A
N92          C93   1.356       .  A
C93          N94   1.359       .  A
C93         C130   1.468       .  S
N94          C95   1.360       .  A
C95          N96   1.360       .  A
C95          C99   1.470       .  S
C97          N98   1.359       .  A
C97         N102   1.356       .  A
C97         C545   1.467   1_455  S
N98          C99   1.360       .  A
C99         N100   1.360       .  A
N100        C101   1.359       .  A
C101        N102   1.356       .  A
C101        C116   1.468       .  S
O103       Cu111   2.005       .  S
O103        C113   1.278       .  A
O104       Cu111   2.012       .  S
O104        C114   1.278       .  A
O105       Cu111   2.005       .  S
O105        C115   1.278       .  A
O106       Cu111   2.012       .  S
O106        C116   1.278       .  A
O107       Cu112   2.005       .  S
O107        C116   1.278       .  A
O108       Cu112   2.012       .  S
O108        C115   1.278       .  A
O109       Cu112   2.005       .  S
O109        C114   1.278       .  A
O110       Cu112   2.012       .  S
O110        C113   1.278       .  A
Cu111      Cu112   2.376       .  S
C114        C321   1.468   1_545  S
O117       Cu593   2.012       .  S
O117        C127   1.278       .  A
O118       Cu125   2.005       .  S
O118        C128   1.278       .  A
O119       Cu593   2.012       .  S
O119        C129   1.278       .  A
O120       Cu125   2.005       .  S
O120        C130   1.278       .  A
O121       Cu594   2.012   1_455  S
O121        C130   1.278       .  A
O122       Cu126   2.005       .  S
O122        C129   1.278       .  A
O123       Cu594   2.012   1_455  S
O123        C128   1.278       .  A
O124       Cu126   2.005       .  S
O124        C127   1.278       .  A
Cu125       O585   2.012   1_455  S
Cu125       O587   2.012   1_455  S
Cu125      Cu594   2.376   1_455  S
Cu126       O589   2.012       .  S
Cu126       O591   2.012       .  S
Cu126      Cu593   2.376       .  S
C127        C161   1.468       .  S
C129        C135   1.468       .  S
C131        N132   1.359       .  A
C131        N136   1.356       .  A
N132        C133   1.360       .  A
C133        N134   1.360       .  A
C133        C141   1.471       .  S
N134        C135   1.359       .  A
C135        N136   1.356       .  A
C137        N138   1.356       .  A
C137        N142   1.359       .  A
C137        C507   1.467       .  S
N138        C139   1.356       .  A
C139        N140   1.359       .  A
C139        C153   1.468       .  S
N140        C141   1.360       .  A
C141        N142   1.360       .  A
O143       Cu151   2.012       .  S
O143        C153   1.278       .  A
O144       Cu151   2.005       .  S
O144        C154   1.278       .  A
O145       Cu151   2.012       .  S
O145        C155   1.278       .  A
O146       Cu151   2.005       .  S
O146        C156   1.278       .  A
O147       Cu152   2.012       .  S
O147        C156   1.278       .  A
O148       Cu152   2.005       .  S
O148        C155   1.278       .  A
O149       Cu152   2.012       .  S
O149        C154   1.278       .  A
O150       Cu152   2.005       .  S
O150        C153   1.278       .  A
Cu151      Cu152   2.376       .  S
C155        C401   1.468       .  S
C157        N158   1.359       .  A
C157        N162   1.356       .  A
C157        C207   1.467       .  S
N158        C159   1.360       .  A
C159        N160   1.360       .  A
C159        C165   1.471       .  S
N160        C161   1.359       .  A
C161        N162   1.356       .  A
C163        N164   1.359       .  A
C163        N168   1.356       .  A
C163        C699   1.467       .  S
N164        C165   1.360       .  A
C165        N166   1.360       .  A
N166        C167   1.359       .  A
C167        N168   1.356       .  A
C167        C389   1.468   1_545  S
O169       Cu177   2.012       .  S
O169        C179   1.278       .  A
O170       Cu177   2.005       .  S
O170        C180   1.278       .  A
O171       Cu177   2.012       .  S
O171        C181   1.278       .  A
O172       Cu177   2.005       .  S
O172        C182   1.278       .  A
O173       Cu178   2.012       .  S
O173        C182   1.278       .  A
O174       Cu178   2.005       .  S
O174        C181   1.278       .  A
O175       Cu178   2.012       .  S
O175        C180   1.278       .  A
O176       Cu178   2.005       .  S
O176        C179   1.278       .  A
Cu177      Cu178   2.376       .  S
C179        C191   1.467       .  S
C181        C553   1.467       .  S
C183        N184   1.356       .  A
C183        N188   1.359       .  A
N184        C185   1.356       .  A
C185        N186   1.359       .  A
C185        C206   1.467       .  S
N186        C187   1.360       .  A
C187        N188   1.360       .  A
C187        C193   1.470       .  S
C189        N190   1.356       .  A
C189        N194   1.359       .  A
C189        C309   1.467       .  S
N190        C191   1.356       .  A
C191        N192   1.359       .  A
N192        C193   1.360       .  A
C193        N194   1.360       .  A
O195       Cu437   2.012   1_545  S
O195        C205   1.278       .  A
O196       Cu203   2.005       .  S
O196        C206   1.278       .  A
O197       Cu437   2.012   1_545  S
O197        C207   1.278       .  A
O198       Cu203   2.005       .  S
O198        C208   1.278       .  A
O199       Cu438   2.012       .  S
O199        C208   1.278       .  A
O200       Cu204   2.005       .  S
O200        C207   1.278       .  A
O201       Cu438   2.012       .  S
O201        C206   1.278       .  A
O202       Cu204   2.005       .  S
O202        C205   1.278       .  A
Cu203       O429   2.012       .  S
Cu203       O431   2.012       .  S
Cu203      Cu438   2.376       .  S
Cu204       O433   2.012   1_545  S
Cu204       O435   2.012   1_545  S
Cu204      Cu437   2.376   1_545  S
C205        C213   1.467       .  S
C209        N210   1.359       .  A
C209        N214   1.356       .  A
N210        C211   1.360       .  A
C211        N212   1.360       .  A
C211        C217   1.471       .  S
N212        C213   1.359       .  A
C213        N214   1.356       .  A
C215        N216   1.359       .  A
C215        N220   1.356       .  A
C215        C271   1.467   1_545  S
N216        C217   1.360       .  A
C217        N218   1.360       .  A
N218        C219   1.359       .  A
C219        N220   1.356       .  A
C219        C233   1.467       .  S
O221       Cu229   2.012       .  S
O221        C231   1.278       .  A
O222       Cu229   2.005       .  S
O222        C232   1.278       .  A
O223       Cu229   2.012       .  S
O223        C233   1.278       .  A
O224       Cu229   2.005       .  S
O224        C234   1.278       .  A
O225       Cu230   2.012       .  S
O225        C234   1.278       .  A
O226       Cu230   2.005       .  S
O226        C233   1.278       .  A
O227       Cu230   2.012       .  S
O227        C232   1.278       .  A
O228       Cu230   2.005       .  S
O228        C231   1.278       .  A
Cu229      Cu230   2.376       .  S
C231        C631   1.467   1_455  S
C235        N236   1.359       .  A
C235        N240   1.356       .  A
C235        C347   1.468       .  S
N236        C237   1.360       .  A
C237        N238   1.360       .  A
C237        C245   1.471   1_554  S
N238        C239   1.359       .  A
C239        N240   1.356       .  A
C239        C416   1.467       .  S
C241        N242   1.356       .  A
C241        N246   1.359       .  A
C241        C390   1.468       .  S
N242        C243   1.356       .  A
C243        N244   1.359       .  A
C243        C466   1.467       .  S
N244        C245   1.360       .  A
C245        N246   1.360       .  A
O247       Cu255   2.005       .  S
O247        C257   1.278       .  A
O248       Cu255   2.012       .  S
O248        C258   1.278       .  A
O249       Cu255   2.005       .  S
O249        C259   1.278       .  A
O250       Cu255   2.012       .  S
O250        C260   1.278       .  A
O251       Cu256   2.005       .  S
O251        C260   1.278       .  A
O252       Cu256   2.012       .  S
O252        C259   1.278       .  A
O253       Cu256   2.005       .  S
O253        C258   1.278       .  A
O254       Cu256   2.012       .  S
O254        C257   1.278       .  A
Cu255      Cu256   2.376       .  S
C257        C325   1.467       .  S
C258        C365   1.467       .  S
C259        C417   1.467       .  S
C260        C443   1.467       .  S
O261       Cu269   2.012       .  S
O261        C271   1.278       .  A
O262       Cu269   2.005       .  S
O262        C272   1.278       .  A
O263       Cu269   2.012       .  S
O263        C273   1.278       .  A
O264       Cu269   2.005       .  S
O264        C274   1.278       .  A
O265       Cu270   2.012       .  S
O265        C274   1.278       .  A
O266       Cu270   2.005       .  S
O266        C273   1.278       .  A
O267       Cu270   2.012       .  S
O267        C272   1.278       .  A
O268       Cu270   2.005       .  S
O268        C271   1.278       .  A
Cu269      Cu270   2.376       .  S
C272        C293   1.467       .  S
C273        C839   1.467   1_455  S
C274        C281   1.467       .  S
C275        N276   1.359       .  A
C275        N280   1.356       .  A
C275        C312   1.467       .  S
N276        C277   1.360       .  A
C277        N278   1.360       .  A
N278        C279   1.359       .  A
C279        N280   1.356       .  A
C279        C349   1.468       .  S
C281        N282   1.356       .  A
C281        N286   1.359       .  A
N282        C283   1.356       .  A
C283        N284   1.359       .  A
C283        C388   1.468       .  S
N284        C285   1.360       .  A
C285        N286   1.360       .  A
C287        N288   1.359       .  A
C287        N292   1.356       .  A
C287        C310   1.467       .  S
N288        C289   1.360       .  A
C289        N290   1.360       .  A
C289        C765   1.471   1_554  S
N290        C291   1.359       .  A
C291        N292   1.356       .  A
C291        C414   1.467       .  S
C293        N294   1.356       .  A
C293        N298   1.359       .  A
N294        C295   1.356       .  A
C295        N296   1.359       .  A
C295        C468   1.467       .  S
N296        C297   1.360       .  A
C297        N298   1.360       .  A
C297        C757   1.471   1_456  S
O299       Cu307   2.005       .  S
O299        C309   1.278       .  A
O300       Cu307   2.012       .  S
O300        C310   1.278       .  A
O301       Cu307   2.005       .  S
O301        C311   1.278       .  A
O302       Cu307   2.012       .  S
O302        C312   1.278       .  A
O303       Cu308   2.005       .  S
O303        C312   1.278       .  A
O304       Cu308   2.012       .  S
O304        C311   1.278       .  A
O305       Cu308   2.005       .  S
O305        C310   1.278       .  A
O306       Cu308   2.012       .  S
O306        C309   1.278       .  A
Cu307      Cu308   2.376       .  S
C311        C799   1.467       .  S
C313        N314   1.356       .  A
C313        N318   1.359       .  A
C313        C362   1.468       .  S
N314        C315   1.356       .  A
C315        N316   1.359       .  A
C315        C442   1.467       .  S
N316        C317   1.360       .  A
C317        N318   1.360       .  A
C317        C323   1.471       .  S
C319        N320   1.356       .  A
C319        N324   1.359       .  A
C319        C883   1.467   1_455  S
N320        C321   1.356       .  A
C321        N322   1.359       .  A
N322        C323   1.360       .  A
C323        N324   1.360       .  A
C325        N326   1.356       .  A
C325        N330   1.359       .  A
N326        C327   1.356       .  A
C327        N328   1.359       .  A
C327        C364   1.468       .  S
N328        C329   1.360       .  A
C329        N330   1.360       .  A
C329        C333   1.470       .  S
C331        N332   1.359       .  A
C331        N336   1.356       .  A
C331        C779   1.467   1_455  S
N332        C333   1.360       .  A
C333        N334   1.360       .  A
N334        C335   1.359       .  A
C335        N336   1.356       .  A
C335        C350   1.468       .  S
O337       Cu345   2.005       .  S
O337        C347   1.278       .  A
O338       Cu345   2.012       .  S
O338        C348   1.278       .  A
O339       Cu345   2.005       .  S
O339        C349   1.278       .  A
O340       Cu345   2.012       .  S
O340        C350   1.278       .  A
O341       Cu346   2.005       .  S
O341        C350   1.278       .  A
O342       Cu346   2.012       .  S
O342        C349   1.278       .  A
O343       Cu346   2.005       .  S
O343        C348   1.278       .  A
O344       Cu346   2.012       .  S
O344        C347   1.278       .  A
Cu345      Cu346   2.376       .  S
O351       Cu827   2.012       .  S
O351        C361   1.278       .  A
O352       Cu359   2.005       .  S
O352        C362   1.278       .  A
O353       Cu827   2.012       .  S
O353        C363   1.278       .  A
O354       Cu359   2.005       .  S
O354        C364   1.278       .  A
O355       Cu828   2.012   1_455  S
O355        C364   1.278       .  A
O356       Cu360   2.005       .  S
O356        C363   1.278       .  A
O357       Cu828   2.012   1_455  S
O357        C362   1.278       .  A
O358       Cu360   2.005       .  S
O358        C361   1.278       .  A
Cu359       O819   2.012   1_455  S
Cu359       O821   2.012   1_455  S
Cu359      Cu828   2.376   1_455  S
Cu360       O823   2.012       .  S
Cu360       O825   2.012       .  S
Cu360      Cu827   2.376       .  S
C361        C395   1.468       .  S
C363        C369   1.468       .  S
C365        N366   1.359       .  A
C365        N370   1.356       .  A
N366        C367   1.360       .  A
C367        N368   1.360       .  A
C367        C375   1.471       .  S
N368        C369   1.359       .  A
C369        N370   1.356       .  A
C371        N372   1.356       .  A
C371        N376   1.359       .  A
C371        C741   1.467       .  S
N372        C373   1.356       .  A
C373        N374   1.359       .  A
C373        C387   1.468       .  S
N374        C375   1.360       .  A
C375        N376   1.360       .  A
O377       Cu385   2.012       .  S
O377        C387   1.278       .  A
O378       Cu385   2.005       .  S
O378        C388   1.278       .  A
O379       Cu385   2.012       .  S
O379        C389   1.278       .  A
O380       Cu385   2.005       .  S
O380        C390   1.278       .  A
O381       Cu386   2.012       .  S
O381        C390   1.278       .  A
O382       Cu386   2.005       .  S
O382        C389   1.278       .  A
O383       Cu386   2.012       .  S
O383        C388   1.278       .  A
O384       Cu386   2.005       .  S
O384        C387   1.278       .  A
Cu385      Cu386   2.376       .  S
C391        N392   1.359       .  A
C391        N396   1.356       .  A
C391        C441   1.467       .  S
N392        C393   1.360       .  A
C393        N394   1.360       .  A
C393        C399   1.471       .  S
N394        C395   1.359       .  A
C395        N396   1.356       .  A
C397        N398   1.359       .  A
C397        N402   1.356       .  A
C397        C933   1.468       .  S
N398        C399   1.360       .  A
C399        N400   1.360       .  A
N400        C401   1.359       .  A
C401        N402   1.356       .  A
O403       Cu411   2.012       .  S
O403        C413   1.278       .  A
O404       Cu411   2.005       .  S
O404        C414   1.278       .  A
O405       Cu411   2.012       .  S
O405        C415   1.278       .  A
O406       Cu411   2.005       .  S
O406        C416   1.278       .  A
O407       Cu412   2.012       .  S
O407        C416   1.278       .  A
O408       Cu412   2.005       .  S
O408        C415   1.278       .  A
O409       Cu412   2.012       .  S
O409        C414   1.278       .  A
O410       Cu412   2.005       .  S
O410        C413   1.278       .  A
Cu411      Cu412   2.376       .  S
C413        C425   1.467       .  S
C415        C787   1.467       .  S
C417        N418   1.356       .  A
C417        N422   1.359       .  A
N418        C419   1.356       .  A
C419        N420   1.359       .  A
C419        C440   1.467       .  S
N420        C421   1.360       .  A
C421        N422   1.360       .  A
C421        C427   1.471       .  S
C423        N424   1.356       .  A
C423        N428   1.359       .  A
N424        C425   1.356       .  A
C425        N426   1.359       .  A
N426        C427   1.360       .  A
C427        N428   1.360       .  A
O429        C439   1.278       .  A
O430       Cu437   2.005       .  S
O430        C440   1.278       .  A
O431        C441   1.278       .  A
O432       Cu437   2.005       .  S
O432        C442   1.278       .  A
O433        C442   1.278       .  A
O434       Cu438   2.005       .  S
O434        C441   1.278       .  A
O435        C440   1.278       .  A
O436       Cu438   2.005       .  S
O436        C439   1.278       .  A
C439        C447   1.467       .  S
C443        N444   1.359       .  A
C443        N448   1.356       .  A
N444        C445   1.360       .  A
C445        N446   1.360       .  A
C445        C451   1.471       .  S
N446        C447   1.359       .  A
C447        N448   1.356       .  A
C449        N450   1.359       .  A
C449        N454   1.356       .  A
N450        C451   1.360       .  A
C451        N452   1.360       .  A
N452        C453   1.359       .  A
C453        N454   1.356       .  A
C453        C467   1.467       .  S
O455       Cu463   2.012       .  S
O455        C465   1.278       .  A
O456       Cu463   2.005       .  S
O456        C466   1.278       .  A
O457       Cu463   2.012       .  S
O457        C467   1.278       .  A
O458       Cu463   2.005       .  S
O458        C468   1.278       .  A
O459       Cu464   2.012       .  S
O459        C468   1.278       .  A
O460       Cu464   2.005       .  S
O460        C467   1.278       .  A
O461       Cu464   2.012       .  S
O461        C466   1.278       .  A
O462       Cu464   2.005       .  S
O462        C465   1.278       .  A
Cu463      Cu464   2.376       .  S
C465        C865   1.467   1_455  S
C469        N470   1.359       .  A
C469        N474   1.356       .  A
C469        C581   1.468       .  S
N470        C471   1.360       .  A
C471        N472   1.360       .  A
C471        C479   1.470   1_554  S
N472        C473   1.359       .  A
C473        N474   1.356       .  A
C473        C650   1.467       .  S
C475        N476   1.356       .  A
C475        N480   1.359       .  A
C475        C624   1.468       .  S
N476        C477   1.356       .  A
C477        N478   1.359       .  A
C477        C700   1.467       .  S
N478        C479   1.360       .  A
C479        N480   1.360       .  A
O481       Cu489   2.005       .  S
O481        C491   1.278       .  A
O482       Cu489   2.012       .  S
O482        C492   1.278       .  A
O483       Cu489   2.005       .  S
O483        C493   1.278       .  A
O484       Cu489   2.012       .  S
O484        C494   1.278       .  A
O485       Cu490   2.005       .  S
O485        C494   1.278       .  A
O486       Cu490   2.012       .  S
O486        C493   1.278       .  A
O487       Cu490   2.005       .  S
O487        C492   1.278       .  A
O488       Cu490   2.012       .  S
O488        C491   1.278       .  A
Cu489      Cu490   2.376       .  S
C491        C559   1.467       .  S
C492        C599   1.467       .  S
C493        C651   1.467       .  S
C494        C677   1.467       .  S
O495       Cu503   2.012       .  S
O495        C505   1.278       .  A
O496       Cu503   2.005       .  S
O496        C506   1.278       .  A
O497       Cu503   2.012       .  S
O497        C507   1.278       .  A
O498       Cu503   2.005       .  S
O498        C508   1.278       .  A
O499       Cu504   2.012       .  S
O499        C508   1.278       .  A
O500       Cu504   2.005       .  S
O500        C507   1.278       .  A
O501       Cu504   2.012       .  S
O501        C506   1.278       .  A
O502       Cu504   2.005       .  S
O502        C505   1.278       .  A
Cu503      Cu504   2.376       .  S
C505        C917   1.467       .  S
C506        C527   1.467       .  S
C508        C515   1.467       .  S
C509        N510   1.359       .  A
C509        N514   1.356       .  A
C509        C546   1.467       .  S
N510        C511   1.360       .  A
C511        N512   1.360       .  A
C511        C753   1.470   1_544  S
N512        C513   1.359       .  A
C513        N514   1.356       .  A
C513        C583   1.468       .  S
C515        N516   1.356       .  A
C515        N520   1.359       .  A
N516        C517   1.356       .  A
C517        N518   1.359       .  A
C517        C622   1.468       .  S
N518        C519   1.360       .  A
C519        N520   1.360       .  A
C519        C745   1.470   1_556  S
C521        N522   1.359       .  A
C521        N526   1.356       .  A
C521        C544   1.467       .  S
N522        C523   1.360       .  A
C523        N524   1.360       .  A
N524        C525   1.359       .  A
C525        N526   1.356       .  A
C525        C648   1.467       .  S
C527        N528   1.356       .  A
C527        N532   1.359       .  A
N528        C529   1.356       .  A
C529        N530   1.359       .  A
C529        C702   1.467       .  S
N530        C531   1.360       .  A
C531        N532   1.360       .  A
O533       Cu541   2.005       .  S
O533        C543   1.278       .  A
O534       Cu541   2.012       .  S
O534        C544   1.278       .  A
O535       Cu541   2.005       .  S
O535        C545   1.278       .  A
O536       Cu541   2.012       .  S
O536        C546   1.278       .  A
O537       Cu542   2.005       .  S
O537        C546   1.278       .  A
O538       Cu542   2.012       .  S
O538        C545   1.278       .  A
O539       Cu542   2.005       .  S
O539        C544   1.278       .  A
O540       Cu542   2.012       .  S
O540        C543   1.278       .  A
Cu541      Cu542   2.376       .  S
C543        C891   1.467   1_545  S
C547        N548   1.356       .  A
C547        N552   1.359       .  A
C547        C596   1.468       .  S
N548        C549   1.356       .  A
C549        N550   1.359       .  A
C549        C676   1.467       .  S
N550        C551   1.360       .  A
C551        N552   1.360       .  A
C551        C557   1.471       .  S
C553        N554   1.356       .  A
C553        N558   1.359       .  A
N554        C555   1.356       .  A
C555        N556   1.359       .  A
C555        C816   1.468       .  S
N556        C557   1.360       .  A
C557        N558   1.360       .  A
C559        N560   1.356       .  A
C559        N564   1.359       .  A
N560        C561   1.356       .  A
C561        N562   1.359       .  A
C561        C598   1.468       .  S
N562        C563   1.360       .  A
C563        N564   1.360       .  A
C563        C567   1.470       .  S
C565        N566   1.359       .  A
C565        N570   1.356       .  A
N566        C567   1.360       .  A
C567        N568   1.360       .  A
N568        C569   1.359       .  A
C569        N570   1.356       .  A
C569        C584   1.468       .  S
O571       Cu579   2.005       .  S
O571        C581   1.278       .  A
O572       Cu579   2.012       .  S
O572        C582   1.278       .  A
O573       Cu579   2.005       .  S
O573        C583   1.278       .  A
O574       Cu579   2.012       .  S
O574        C584   1.278       .  A
O575       Cu580   2.005       .  S
O575        C584   1.278       .  A
O576       Cu580   2.012       .  S
O576        C583   1.278       .  A
O577       Cu580   2.005       .  S
O577        C582   1.278       .  A
O578       Cu580   2.012       .  S
O578        C581   1.278       .  A
Cu579      Cu580   2.376       .  S
C582        C789   1.468   1_545  S
O585        C595   1.278       .  A
O586       Cu593   2.005       .  S
O586        C596   1.278       .  A
O587        C597   1.278       .  A
O588       Cu593   2.005       .  S
O588        C598   1.278       .  A
O589        C598   1.278       .  A
O590       Cu594   2.005       .  S
O590        C597   1.278       .  A
O591        C596   1.278       .  A
O592       Cu594   2.005       .  S
O592        C595   1.278       .  A
C595        C629   1.468       .  S
C597        C603   1.468       .  S
C599        N600   1.359       .  A
C599        N604   1.356       .  A
N600        C601   1.360       .  A
C601        N602   1.360       .  A
C601        C609   1.471       .  S
N602        C603   1.359       .  A
C603        N604   1.356       .  A
C605        N606   1.356       .  A
C605        N610   1.359       .  A
N606        C607   1.356       .  A
C607        N608   1.359       .  A
C607        C621   1.468       .  S
N608        C609   1.360       .  A
C609        N610   1.360       .  A
O611       Cu619   2.012       .  S
O611        C621   1.278       .  A
O612       Cu619   2.005       .  S
O612        C622   1.278       .  A
O613       Cu619   2.012       .  S
O613        C623   1.278       .  A
O614       Cu619   2.005       .  S
O614        C624   1.278       .  A
O615       Cu620   2.012       .  S
O615        C624   1.278       .  A
O616       Cu620   2.005       .  S
O616        C623   1.278       .  A
O617       Cu620   2.012       .  S
O617        C622   1.278       .  A
O618       Cu620   2.005       .  S
O618        C621   1.278       .  A
Cu619      Cu620   2.376       .  S
C623        C869   1.468       .  S
C625        N626   1.359       .  A
C625        N630   1.356       .  A
C625        C675   1.467       .  S
N626        C627   1.360       .  A
C627        N628   1.360       .  A
C627        C633   1.471       .  S
N628        C629   1.359       .  A
C629        N630   1.356       .  A
C631        N632   1.359       .  A
C631        N636   1.356       .  A
N632        C633   1.360       .  A
C633        N634   1.360       .  A
N634        C635   1.359       .  A
C635        N636   1.356       .  A
C635        C857   1.468   1_545  S
O637       Cu645   2.012       .  S
O637        C647   1.278       .  A
O638       Cu645   2.005       .  S
O638        C648   1.278       .  A
O639       Cu645   2.012       .  S
O639        C649   1.278       .  A
O640       Cu645   2.005       .  S
O640        C650   1.278       .  A
O641       Cu646   2.012       .  S
O641        C650   1.278       .  A
O642       Cu646   2.005       .  S
O642        C649   1.278       .  A
O643       Cu646   2.012       .  S
O643        C648   1.278       .  A
O644       Cu646   2.005       .  S
O644        C647   1.278       .  A
Cu645      Cu646   2.376       .  S
C647        C659   1.467       .  S
C651        N652   1.356       .  A
C651        N656   1.359       .  A
N652        C653   1.356       .  A
C653        N654   1.359       .  A
C653        C674   1.467       .  S
N654        C655   1.360       .  A
C655        N656   1.360       .  A
C655        C661   1.470       .  S
C657        N658   1.356       .  A
C657        N662   1.359       .  A
C657        C777   1.467       .  S
N658        C659   1.356       .  A
C659        N660   1.359       .  A
N660        C661   1.360       .  A
C661        N662   1.360       .  A
O663       Cu905   2.012   1_545  S
O663        C673   1.278       .  A
O664       Cu671   2.005       .  S
O664        C674   1.278       .  A
O665       Cu905   2.012   1_545  S
O665        C675   1.278       .  A
O666       Cu671   2.005       .  S
O666        C676   1.278       .  A
O667       Cu906   2.012       .  S
O667        C676   1.278       .  A
O668       Cu672   2.005       .  S
O668        C675   1.278       .  A
O669       Cu906   2.012       .  S
O669        C674   1.278       .  A
O670       Cu672   2.005       .  S
O670        C673   1.278       .  A
Cu671       O897   2.012       .  S
Cu671       O899   2.012       .  S
Cu671      Cu906   2.376       .  S
Cu672       O901   2.012   1_545  S
Cu672       O903   2.012   1_545  S
Cu672      Cu905   2.376   1_545  S
C673        C681   1.467       .  S
C677        N678   1.359       .  A
C677        N682   1.356       .  A
N678        C679   1.360       .  A
C679        N680   1.360       .  A
C679        C685   1.471       .  S
N680        C681   1.359       .  A
C681        N682   1.356       .  A
C683        N684   1.359       .  A
C683        N688   1.356       .  A
C683        C739   1.467   1_545  S
N684        C685   1.360       .  A
C685        N686   1.360       .  A
N686        C687   1.359       .  A
C687        N688   1.356       .  A
C687        C701   1.467       .  S
O689       Cu697   2.012       .  S
O689        C699   1.278       .  A
O690       Cu697   2.005       .  S
O690        C700   1.278       .  A
O691       Cu697   2.012       .  S
O691        C701   1.278       .  A
O692       Cu697   2.005       .  S
O692        C702   1.278       .  A
O693       Cu698   2.012       .  S
O693        C702   1.278       .  A
O694       Cu698   2.005       .  S
O694        C701   1.278       .  A
O695       Cu698   2.012       .  S
O695        C700   1.278       .  A
O696       Cu698   2.005       .  S
O696        C699   1.278       .  A
Cu697      Cu698   2.376       .  S
C703        N704   1.359       .  A
C703        N708   1.356       .  A
C703        C815   1.468       .  S
N704        C705   1.360       .  A
C705        N706   1.360       .  A
C705        C713   1.470   1_554  S
N706        C707   1.359       .  A
C707        N708   1.357       .  A
C707        C884   1.467       .  S
C709        N710   1.356       .  A
C709        N714   1.359       .  A
C709        C858   1.468       .  S
N710        C711   1.356       .  A
C711        N712   1.359       .  A
C711        C934   1.467       .  S
N712        C713   1.360       .  A
C713        N714   1.360       .  A
O715       Cu723   2.005       .  S
O715        C725   1.278       .  A
O716       Cu723   2.012       .  S
O716        C726   1.278       .  A
O717       Cu723   2.005       .  S
O717        C727   1.278       .  A
O718       Cu723   2.012       .  S
O718        C728   1.278       .  A
O719       Cu724   2.005       .  S
O719        C728   1.278       .  A
O720       Cu724   2.012       .  S
O720        C727   1.278       .  A
O721       Cu724   2.005       .  S
O721        C726   1.278       .  A
O722       Cu724   2.012       .  S
O722        C725   1.278       .  A
Cu723      Cu724   2.376       .  S
C725        C793   1.467       .  S
C726        C833   1.467       .  S
C727        C885   1.467       .  S
C728        C911   1.467       .  S
O729       Cu737   2.012       .  S
O729        C739   1.278       .  A
O730       Cu737   2.005       .  S
O730        C740   1.278       .  A
O731       Cu737   2.012       .  S
O731        C741   1.278       .  A
O732       Cu737   2.005       .  S
O732        C742   1.278       .  A
O733       Cu738   2.012       .  S
O733        C742   1.278       .  A
O734       Cu738   2.005       .  S
O734        C741   1.278       .  A
O735       Cu738   2.012       .  S
O735        C740   1.278       .  A
O736       Cu738   2.005       .  S
O736        C739   1.278       .  A
Cu737      Cu738   2.376       .  S
C740        C761   1.467       .  S
C742        C749   1.467       .  S
C743        N744   1.359       .  A
C743        N748   1.357       .  A
C743        C780   1.467       .  S
N744        C745   1.360       .  A
C745        N746   1.360       .  A
N746        C747   1.359       .  A
C747        N748   1.356       .  A
C747        C817   1.468       .  S
C749        N750   1.356       .  A
C749        N754   1.359       .  A
N750        C751   1.356       .  A
C751        N752   1.359       .  A
C751        C856   1.468       .  S
N752        C753   1.360       .  A
C753        N754   1.360       .  A
C755        N756   1.359       .  A
C755        N760   1.356       .  A
C755        C778   1.467       .  S
N756        C757   1.360       .  A
C757        N758   1.360       .  A
N758        C759   1.359       .  A
C759        N760   1.356       .  A
C759        C882   1.467       .  S
C761        N762   1.356       .  A
C761        N766   1.359       .  A
N762        C763   1.356       .  A
C763        N764   1.359       .  A
C763        C936   1.467       .  S
N764        C765   1.360       .  A
C765        N766   1.360       .  A
O767       Cu775   2.005       .  S
O767        C777   1.278       .  A
O768       Cu775   2.012       .  S
O768        C778   1.278       .  A
O769       Cu775   2.005       .  S
O769        C779   1.278       .  A
O770       Cu775   2.012       .  S
O770        C780   1.278       .  A
O771       Cu776   2.005       .  S
O771        C780   1.278       .  A
O772       Cu776   2.012       .  S
O772        C779   1.278       .  A
O773       Cu776   2.005       .  S
O773        C778   1.278       .  A
O774       Cu776   2.012       .  S
O774        C777   1.278       .  A
Cu775      Cu776   2.376       .  S
C781        N782   1.356       .  A
C781        N786   1.359       .  A
C781        C830   1.468       .  S
N782        C783   1.356       .  A
C783        N784   1.359       .  A
C783        C910   1.467       .  S
N784        C785   1.360       .  A
C785        N786   1.360       .  A
C785        C791   1.471       .  S
C787        N788   1.356       .  A
C787        N792   1.359       .  A
N788        C789   1.356       .  A
C789        N790   1.359       .  A
N790        C791   1.360       .  A
C791        N792   1.360       .  A
C793        N794   1.356       .  A
C793        N798   1.359       .  A
N794        C795   1.356       .  A
C795        N796   1.359       .  A
C795        C832   1.468       .  S
N796        C797   1.360       .  A
C797        N798   1.360       .  A
C797        C801   1.470       .  S
C799        N800   1.359       .  A
C799        N804   1.356       .  A
N800        C801   1.360       .  A
C801        N802   1.360       .  A
N802        C803   1.359       .  A
C803        N804   1.356       .  A
C803        C818   1.468       .  S
O805       Cu813   2.005       .  S
O805        C815   1.278       .  A
O806       Cu813   2.012       .  S
O806        C816   1.278       .  A
O807       Cu813   2.005       .  S
O807        C817   1.278       .  A
O808       Cu813   2.012       .  S
O808        C818   1.278       .  A
O809       Cu814   2.005       .  S
O809        C818   1.278       .  A
O810       Cu814   2.012       .  S
O810        C817   1.278       .  A
O811       Cu814   2.005       .  S
O811        C816   1.278       .  A
O812       Cu814   2.012       .  S
O812        C815   1.278       .  A
Cu813      Cu814   2.376       .  S
O819        C829   1.278       .  A
O820       Cu827   2.005       .  S
O820        C830   1.278       .  A
O821        C831   1.278       .  A
O822       Cu827   2.005       .  S
O822        C832   1.278       .  A
O823        C832   1.278       .  A
O824       Cu828   2.005       .  S
O824        C831   1.278       .  A
O825        C830   1.278       .  A
O826       Cu828   2.005       .  S
O826        C829   1.278       .  A
C829        C863   1.468       .  S
C831        C837   1.468       .  S
C833        N834   1.359       .  A
C833        N838   1.356       .  A
N834        C835   1.360       .  A
C835        N836   1.360       .  A
C835        C843   1.471       .  S
N836        C837   1.359       .  A
C837        N838   1.356       .  A
C839        N840   1.356       .  A
C839        N844   1.359       .  A
N840        C841   1.356       .  A
C841        N842   1.359       .  A
C841        C855   1.468       .  S
N842        C843   1.360       .  A
C843        N844   1.360       .  A
O845       Cu853   2.012       .  S
O845        C855   1.278       .  A
O846       Cu853   2.005       .  S
O846        C856   1.278       .  A
O847       Cu853   2.012       .  S
O847        C857   1.278       .  A
O848       Cu853   2.005       .  S
O848        C858   1.278       .  A
O849       Cu854   2.012       .  S
O849        C858   1.278       .  A
O850       Cu854   2.005       .  S
O850        C857   1.278       .  A
O851       Cu854   2.012       .  S
O851        C856   1.278       .  A
O852       Cu854   2.005       .  S
O852        C855   1.278       .  A
Cu853      Cu854   2.376       .  S
C859        N860   1.359       .  A
C859        N864   1.356       .  A
C859        C909   1.467       .  S
N860        C861   1.360       .  A
C861        N862   1.360       .  A
C861        C867   1.471       .  S
N862        C863   1.359       .  A
C863        N864   1.356       .  A
C865        N866   1.359       .  A
C865        N870   1.356       .  A
N866        C867   1.360       .  A
C867        N868   1.360       .  A
N868        C869   1.359       .  A
C869        N870   1.356       .  A
O871       Cu879   2.012       .  S
O871        C881   1.278       .  A
O872       Cu879   2.005       .  S
O872        C882   1.278       .  A
O873       Cu879   2.012       .  S
O873        C883   1.278       .  A
O874       Cu879   2.005       .  S
O874        C884   1.278       .  A
O875       Cu880   2.012       .  S
O875        C884   1.278       .  A
O876       Cu880   2.005       .  S
O876        C883   1.278       .  A
O877       Cu880   2.012       .  S
O877        C882   1.278       .  A
O878       Cu880   2.005       .  S
O878        C881   1.278       .  A
Cu879      Cu880   2.376       .  S
C881        C893   1.467       .  S
C885        N886   1.356       .  A
C885        N890   1.359       .  A
N886        C887   1.356       .  A
C887        N888   1.359       .  A
C887        C908   1.467       .  S
N888        C889   1.360       .  A
C889        N890   1.360       .  A
C889        C895   1.470       .  S
C891        N892   1.356       .  A
C891        N896   1.359       .  A
N892        C893   1.356       .  A
C893        N894   1.359       .  A
N894        C895   1.360       .  A
C895        N896   1.360       .  A
O897        C907   1.278       .  A
O898       Cu905   2.005       .  S
O898        C908   1.278       .  A
O899        C909   1.278       .  A
O900       Cu905   2.005       .  S
O900        C910   1.278       .  A
O901        C910   1.278       .  A
O902       Cu906   2.005       .  S
O902        C909   1.278       .  A
O903        C908   1.278       .  A
O904       Cu906   2.005       .  S
O904        C907   1.278       .  A
C907        C915   1.467       .  S
C911        N912   1.359       .  A
C911        N916   1.356       .  A
N912        C913   1.360       .  A
C913        N914   1.360       .  A
C913        C919   1.471       .  S
N914        C915   1.359       .  A
C915        N916   1.356       .  A
C917        N918   1.359       .  A
C917        N922   1.356       .  A
N918        C919   1.360       .  A
C919        N920   1.360       .  A
N920        C921   1.359       .  A
C921        N922   1.356       .  A
C921        C935   1.467       .  S
O923       Cu931   2.012       .  S
O923        C933   1.278       .  A
O924       Cu931   2.005       .  S
O924        C934   1.278       .  A
O925       Cu931   2.012       .  S
O925        C935   1.278       .  A
O926       Cu931   2.005       .  S
O926        C936   1.278       .  A
O927       Cu932   2.012       .  S
O927        C936   1.278       .  A
O928       Cu932   2.005       .  S
O928        C935   1.278       .  A
O929       Cu932   2.012       .  S
O929        C934   1.278       .  A
O930       Cu932   2.005       .  S
O930        C933   1.278       .  A
Cu931      Cu932   2.376       .  S
