geometry optimzed in LAMMPS
_audit_creation_date              2020-11-30 
_audit_creation_method            'lammps2cif' 
_symmetry_space_group_name_H-M    'P1' 
_symmetry_Int_Tables_number       1 
_symmetry_cell_setting            triclinic 
loop_ 
_symmetry_equiv_pos_as_xyz 
  x,y,z 
_cell_length_a                    31.02047455732882 
_cell_length_b                    30.978107696831774 
_cell_length_c                    35.701711734942265 
_cell_angle_alpha                 89.98458381144833 
_cell_angle_beta                  90.03026265477982 
_cell_angle_gamma                 92.25496827987342 
loop_ 
_atom_site_label 
_atom_site_type_symbol 
_atom_site_fract_x 
_atom_site_fract_y 
_atom_site_fract_z 
_atom_site_charge 
C1          C  0.50887315  0.00057811  0.48181308     0.00910
C2          C  0.50623538  0.00022282  0.01988974     0.00910
N3          N  0.49193473  0.14817231  0.19330116    -0.26950
N4          N  0.48877853  0.18376787  0.17327026    -0.34800
C5          C  0.48771296  0.17302985  0.13662941     0.01390
C6          C  0.49028757  0.12853828  0.13396607     0.07420
C7          C  0.49318286  0.11406024  0.17036547    -0.05680
H8          H  0.48692683  0.19588121  0.11375029     0.08090
H9          H  0.49706013  0.08110522  0.17950975     0.09290
Cu10       Cu  0.48943446  0.24439618  0.19846769     0.44170
Cu11       Cu  0.49610719  0.14661039  0.25071191     0.41990
Cu12       Cu  0.49783566  0.24449418  0.30260656     0.43880
N13         N  0.49274669  0.29938519  0.23213382    -0.34330
N14         N  0.49564782  0.29931714  0.26916755    -0.28590
C15         C  0.49715988  0.34037393  0.28151570    -0.04690
C16         C  0.49525765  0.36754071  0.25091502     0.07530
C17         C  0.49252265  0.34055198  0.22008790     0.01320
H18         H  0.49973066  0.34970606  0.31063567     0.08980
H19         H  0.49060453  0.35008661  0.19101731     0.08060
N20         N  0.49744919  0.18423383  0.32812858    -0.35780
N21         N  0.49651807  0.14828866  0.30823354    -0.27960
C22         C  0.49418153  0.11420069  0.33133150    -0.03200
C23         C  0.49324001  0.12923020  0.36770965     0.05410
C24         C  0.49601560  0.17387100  0.36480983     0.03500
H25         H  0.49285364  0.08083517  0.32224297     0.08610
H26         H  0.49582684  0.19697426  0.38751100     0.07440
N27         N  0.50194443  0.85240571  0.19321079    -0.26950
N28         N  0.50680296  0.81657177  0.17385869    -0.34800
C29         C  0.50925433  0.82658884  0.13713119     0.01390
C30         C  0.50559692  0.87083355  0.13362395     0.07420
C31         C  0.50072864  0.88600597  0.16962169    -0.05680
H32         H  0.51255127  0.80344023  0.11473883     0.08090
H33         H  0.49660962  0.91915664  0.17807503     0.09290
Cu34       Cu  0.50770099  0.75643169  0.19965437     0.44170
Cu35       Cu  0.49763340  0.85475682  0.25071922     0.41990
Cu36       Cu  0.49722114  0.75623121  0.30300123     0.43880
N37         N  0.50529318  0.70133428  0.23306585    -0.34330
N38         N  0.50166845  0.70126858  0.27003151    -0.28590
C39         C  0.50085912  0.66018027  0.28233856    -0.04690
C40         C  0.50395640  0.63316340  0.25172853     0.07530
C41         C  0.50666428  0.66027362  0.22098039     0.01320
H42         H  0.49775597  0.65070873  0.31139376     0.08980
H43         H  0.50918422  0.65088534  0.19192156     0.08060
N44         N  0.49547310  0.81658360  0.32817434    -0.35780
N45         N  0.49631925  0.85263464  0.30835515    -0.27960
C46         C  0.49793403  0.88661488  0.33161738    -0.03200
C47         C  0.49755709  0.87137043  0.36791959     0.05410
C48         C  0.49610120  0.82676931  0.36489388     0.03500
H49         H  0.50011822  0.92005047  0.32273657     0.08610
H50         H  0.49707169  0.80361579  0.38753237     0.07440
C51         C  0.00031159  0.49973207  0.48089726     0.00910
C52         C  0.99991196  0.50037256  0.01927047     0.00910
N53         N  0.14869864  0.49479756  0.19243400    -0.26950
N54         N  0.18480353  0.49642306  0.17278379    -0.34800
C55         C  0.17484717  0.49789928  0.13602364     0.01390
C56         C  0.13030266  0.49716519  0.13279084     0.07420
C57         C  0.11494138  0.49549018  0.16905126    -0.05680
H58         H  0.19815133  0.50043180  0.11352696     0.08090
H59         H  0.08152863  0.49523325  0.17783486     0.09290
Cu60       Cu  0.24491290  0.49846634  0.19851805     0.44170
Cu61       Cu  0.14608216  0.49255221  0.25007944     0.41990
Cu62       Cu  0.24419643  0.49971446  0.30242754     0.43880
N63         N  0.29959845  0.50043837  0.23225127    -0.34330
N64         N  0.29937643  0.50095348  0.26935082    -0.28590
C65         C  0.34034075  0.50135966  0.28179969    -0.04690
C66         C  0.36753517  0.50110731  0.25115097     0.07530
C67         C  0.34069423  0.50059814  0.22023520     0.01320
H68         H  0.34957129  0.50146188  0.31100873     0.08980
H69         H  0.35025859  0.49998594  0.19112785     0.08060
N70         N  0.18389737  0.49405812  0.32762225    -0.35780
N71         N  0.14800648  0.49049075  0.30774904    -0.27960
C72         C  0.11419532  0.48572655  0.33096203    -0.03200
C73         C  0.12939150  0.48609664  0.36734818     0.05410
C74         C  0.17375474  0.49204019  0.36431792     0.03500
H75         H  0.08087227  0.48269392  0.32198688     0.08610
H76         H  0.19687910  0.49419103  0.38698686     0.07440
N77         N  0.85022162  0.51120473  0.19020233    -0.26950
N78         N  0.81376856  0.50435732  0.17162543    -0.34800
C79         C  0.82265925  0.50107475  0.13480301     0.01390
C80         C  0.86683938  0.50709653  0.13007075     0.07420
C81         C  0.88317280  0.51284315  0.16585737    -0.05680
H82         H  0.79896959  0.49295928  0.11345901     0.08090
H83         H  0.91684475  0.51622767  0.17373363     0.09290
Cu84       Cu  0.75458274  0.49850486  0.19858008     0.44170
Cu85       Cu  0.85410618  0.51370089  0.24798999     0.41990
Cu86       Cu  0.75643525  0.49976275  0.30187440     0.43880
N87         N  0.70013094  0.49770295  0.23240885    -0.34330
N88         N  0.70063623  0.49815840  0.26949216    -0.28590
C89         C  0.65976469  0.49874555  0.28208979    -0.04690
C90         C  0.63237940  0.49874173  0.25150426     0.07530
C91         C  0.65900768  0.49800842  0.22051935     0.01320
H92         H  0.65073445  0.49955898  0.31132198     0.08980
H93         H  0.64928626  0.49811503  0.19143404     0.08060
N94         N  0.81733169  0.50587003  0.32605600    -0.35780
N95         N  0.85279383  0.51168005  0.30587584    -0.27960
C96         C  0.88691109  0.51573011  0.32887992    -0.03200
C97         C  0.87238588  0.51278879  0.36544438     0.05410
C98         C  0.82809207  0.50591761  0.36265859     0.03500
H99         H  0.91999897  0.52021675  0.31959801     0.08610
H100        H  0.80537008  0.50192303  0.38548424     0.07440
O101        O  0.49707944  0.43559213  0.22010859    -0.72600
O102        O  0.50287831  0.56535148  0.22059297    -0.73580
O103        O  0.56467594  0.49992425  0.22054577    -0.62200
O104        O  0.43531732  0.50090791  0.22026696    -0.70610
O105        O  0.43514099  0.50026819  0.28246667    -0.70330
O106        O  0.56473027  0.50012640  0.28274517    -0.61420
O107        O  0.50222363  0.56518075  0.28278763    -0.73930
O108        O  0.49753307  0.43527561  0.28230619    -0.72710
Cu109      Cu  0.50000604  0.50047316  0.21822192     1.04560
Cu110      Cu  0.49991279  0.50021214  0.28476467     1.04330
C111        C  0.49661817  0.41501141  0.25112221     0.93600
C112        C  0.50310171  0.58569159  0.25171992     0.92740
C113        C  0.58506268  0.49969090  0.25164258     0.84880
C114        C  0.41486766  0.50075382  0.25131771     0.91150
C115        C  0.07350701  0.53409232  0.09930883    -0.11920
C116        C  0.10338903  0.50146429  0.09903073     0.05080
C117        C  0.10407815  0.47240521  0.06848493    -0.07210
C118        C  0.07249813  0.47512775  0.04030136    -0.07960
C119        C  0.04024533  0.50578415  0.04226767    -0.02510
C120        C  0.04240349  0.53713660  0.07123344     0.04310
N121        N  0.01224309  0.57123093  0.07346792     0.66820
H122        H  0.07394766  0.55710406  0.12218565     0.15720
H123        H  0.07080141  0.45066699  0.01866098     0.15430
N124        N  0.13397503  0.43807997  0.06691151     0.74520
O125        O  0.00028197  0.58492223  0.10495779    -0.38930
O126        O  0.00090161  0.59079028  0.04429782    -0.38870
O127        O  0.14362219  0.41765827  0.09614930    -0.39580
O128        O  0.14676939  0.42462237  0.03560674    -0.39640
C129        C  0.03716836  0.45789266  0.43277031    -0.11920
C130        C  0.03996797  0.49254021  0.45813414     0.05080
C131        C  0.07645783  0.52150480  0.45651509    -0.07210
C132        C  0.10801114  0.51568360  0.42888452    -0.07960
C133        C  0.10262964  0.48340837  0.40152916    -0.02510
C134        C  0.06748031  0.45322831  0.40425243     0.04310
N135        N  0.06135044  0.41847728  0.37777775     0.66820
H136        H  0.00969927  0.43528722  0.43400202     0.15720
H137        H  0.13468152  0.53918325  0.42648116     0.15430
N138        N  0.08043474  0.55887287  0.48010027     0.74520
O139        O  0.09324602  0.39860767  0.36564717    -0.38930
O140        O  0.02374754  0.40515504  0.36881442    -0.38870
O141        O  0.11660753  0.56983731  0.49410309    -0.39580
O142        O  0.05025156  0.58491082  0.48155587    -0.39640
C143        C  0.92682218  0.52614871  0.03839361    -0.11920
C144        C  0.95913190  0.49574959  0.04181789     0.05080
C145        C  0.95621737  0.46529743  0.07149923    -0.07210
C146        C  0.92368318  0.46837547  0.09830972    -0.07960
C147        C  0.89315519  0.50032365  0.09622836    -0.02510
C148        C  0.89361240  0.52868908  0.06513095     0.04310
N149        N  0.86301527  0.56215786  0.06167688     0.66820
H150        H  0.92888797  0.54978399  0.01608465     0.15720
H151        H  0.92299169  0.44632972  0.12190899     0.15430
N152        N  0.98723582  0.43234335  0.07597468     0.74520
O153        O  0.87442516  0.59819433  0.04756649    -0.38930
O154        O  0.82349003  0.55406947  0.06786055    -0.38870
O155        O  0.00011938  0.42227018  0.10825751    -0.39580
O156        O  0.99866322  0.41032789  0.04823256    -0.39640
C157        C  0.89361276  0.48296173  0.42722168    -0.11920
C158        C  0.89948827  0.51490058  0.39956613     0.05080
C159        C  0.93480128  0.54486834  0.40241558    -0.07210
C160        C  0.96466053  0.54044993  0.43132527    -0.07960
C161        C  0.96121091  0.50636153  0.45721510    -0.02510
C162        C  0.92466981  0.47745616  0.45543625     0.04310
N163        N  0.92001022  0.44065759  0.47969184     0.66820
H164        H  0.86678617  0.45964778  0.42482212     0.15720
H165        H  0.99217733  0.56298112  0.43259091     0.15430
N166        N  0.94142733  0.57940414  0.37584150     0.74520
O167        O  0.88325411  0.42921725  0.49220958    -0.38930
O168        O  0.95087761  0.41580639  0.48389679    -0.38870
O169        O  0.91002524  0.60072928  0.36469358    -0.39580
O170        O  0.97917471  0.59120926  0.36599746    -0.39640
C171        C  0.47131275  0.06725326  0.04254390    -0.11920
C172        C  0.50668113  0.04021289  0.04316693     0.05080
C173        C  0.53857343  0.04641295  0.07119577    -0.07210
C174        C  0.53259160  0.07674505  0.09942517    -0.07960
C175        C  0.49593107  0.10160845  0.10042167    -0.02510
C176        C  0.46507568  0.09763599  0.07124968     0.04310
N177        N  0.42601914  0.12132384  0.07164936     0.66820
H178        H  0.44676770  0.06234986  0.02125034     0.15720
H179        H  0.55666741  0.08064710  0.12130425     0.15430
N180        N  0.57689647  0.02173570  0.07173905     0.74520
O181        O  0.40697576  0.12933977  0.04131501    -0.38930
O182        O  0.40760379  0.12974292  0.10216600    -0.38870
O183        O  0.59681778  0.01451671  0.04173614    -0.39580
O184        O  0.59372281  0.01140909  0.10251340    -0.39640
C185        C  0.46741561  0.03511742  0.43181652    -0.11920
C186        C  0.50064328  0.03974074  0.45849129     0.05080
C187        C  0.52632233  0.07862257  0.45870592    -0.07210
C188        C  0.52056142  0.10955916  0.43054597    -0.07960
C189        C  0.49047885  0.10217543  0.40171677    -0.02510
C190        C  0.46220308  0.06539754  0.40331288     0.04310
N191        N  0.42859040  0.05789087  0.37598047     0.66820
H192        H  0.44600569  0.00665391  0.43240646     0.15720
H193        H  0.54209335  0.13795316  0.42958108     0.15430
N194        N  0.55996307  0.08659575  0.48544562     0.74520
O195        O  0.41704796  0.01979937  0.36679147    -0.38930
O196        O  0.40761983  0.08893558  0.36353587    -0.38870
O197        O  0.59641176  0.07132597  0.47960209    -0.39580
O198        O  0.55747274  0.11846901  0.50725116    -0.39640
C199        C  0.53696553  0.93223740  0.04489984    -0.11920
C200        C  0.50174913  0.95913732  0.04168925     0.05080
C201        C  0.46528623  0.95152041  0.06484849    -0.07210
C202        C  0.46727033  0.92120701  0.09377319    -0.07960
C203        C  0.50407912  0.89728096  0.09938907    -0.02510
C204        C  0.53902692  0.90171077  0.07400226     0.04310
N205        N  0.57794674  0.87846927  0.07890532     0.66820
H206        H  0.56457995  0.93767058  0.02674165     0.15720
H207        H  0.44001385  0.91657449  0.11253453     0.15430
N208        N  0.42639879  0.97470502  0.05962946     0.74520
O209        O  0.60083747  0.86982054  0.05086243    -0.38930
O210        O  0.59249227  0.87138459  0.11126695    -0.38870
O211        O  0.41352456  0.98343981  0.02704653    -0.39580
O212        O  0.40217944  0.98200586  0.08713820    -0.39640
C213        C  0.47682802  0.92930692  0.45958814    -0.11920
C214        C  0.51178995  0.95962982  0.45982121     0.05080
C215        C  0.54430276  0.95647086  0.43250339    -0.07210
C216        C  0.53912443  0.92649547  0.40347797    -0.07960
C217        C  0.50287064  0.89821683  0.40175526    -0.02510
C218        C  0.47189631  0.89843709  0.43082973     0.04310
N219        N  0.43387550  0.87024812  0.43030108     0.66820
H220        H  0.45125361  0.93210514  0.47990339     0.15720
H221        H  0.56352534  0.92541537  0.38180417     0.15430
N222        N  0.58252648  0.98392870  0.43379736     0.74520
O223        O  0.41639131  0.85827831  0.46070308    -0.38930
O224        O  0.41482815  0.86120283  0.39988134    -0.38870
O225        O  0.60439679  0.98618419  0.46357705    -0.39580
O226        O  0.59832111  0.99980601  0.40401314    -0.39640
C227        C  0.50887317  0.00057812  0.98181308     0.00910
C228        C  0.50623536  0.00022282  0.51988974     0.00910
N229        N  0.49193473  0.14817230  0.69330116    -0.26950
N230        N  0.48877853  0.18376787  0.67327026    -0.34800
C231        C  0.48771296  0.17302984  0.63662941     0.01390
C232        C  0.49028756  0.12853828  0.63396607     0.07420
C233        C  0.49318286  0.11406024  0.67036547    -0.05680
H234        H  0.48692682  0.19588121  0.61375029     0.08090
H235        H  0.49706013  0.08110522  0.67950975     0.09290
Cu236      Cu  0.48943447  0.24439618  0.69846769     0.44170
Cu237      Cu  0.49610719  0.14661039  0.75071191     0.41990
Cu238      Cu  0.49783567  0.24449418  0.80260656     0.43880
N239        N  0.49274670  0.29938519  0.73213382    -0.34330
N240        N  0.49564783  0.29931714  0.76916755    -0.28590
C241        C  0.49715989  0.34037393  0.78151570    -0.04690
C242        C  0.49525766  0.36754071  0.75091502     0.07530
C243        C  0.49252266  0.34055198  0.72008790     0.01320
H244        H  0.49973067  0.34970606  0.81063567     0.08980
H245        H  0.49060453  0.35008661  0.69101731     0.08060
N246        N  0.49744920  0.18423383  0.82812858    -0.35780
N247        N  0.49651808  0.14828867  0.80823354    -0.27960
C248        C  0.49418154  0.11420069  0.83133150    -0.03200
C249        C  0.49324002  0.12923020  0.86770965     0.05410
C250        C  0.49601561  0.17387101  0.86480983     0.03500
H251        H  0.49285365  0.08083517  0.82224297     0.08610
H252        H  0.49582686  0.19697426  0.88751100     0.07440
N253        N  0.50194443  0.85240571  0.69321079    -0.26950
N254        N  0.50680295  0.81657177  0.67385869    -0.34800
C255        C  0.50925432  0.82658883  0.63713120     0.01390
C256        C  0.50559692  0.87083354  0.63362395     0.07420
C257        C  0.50072864  0.88600597  0.66962169    -0.05680
H258        H  0.51255125  0.80344022  0.61473884     0.08090
H259        H  0.49660962  0.91915664  0.67807503     0.09290
Cu260      Cu  0.50770099  0.75643169  0.69965437     0.44170
Cu261      Cu  0.49763341  0.85475682  0.75071922     0.41990
Cu262      Cu  0.49722115  0.75623121  0.80300123     0.43880
N263        N  0.50529318  0.70133428  0.73306585    -0.34330
N264        N  0.50166846  0.70126858  0.77003151    -0.28590
C265        C  0.50085913  0.66018027  0.78233856    -0.04690
C266        C  0.50395640  0.63316340  0.75172853     0.07530
C267        C  0.50666428  0.66027362  0.72098039     0.01320
H268        H  0.49775598  0.65070873  0.81139376     0.08980
H269        H  0.50918422  0.65088534  0.69192156     0.08060
N270        N  0.49547311  0.81658360  0.82817435    -0.35780
N271        N  0.49631927  0.85263464  0.80835515    -0.27960
C272        C  0.49793405  0.88661488  0.83161739    -0.03200
C273        C  0.49755711  0.87137043  0.86791959     0.05410
C274        C  0.49610122  0.82676931  0.86489388     0.03500
H275        H  0.50011824  0.92005047  0.82273658     0.08610
H276        H  0.49707170  0.80361579  0.88753238     0.07440
C277        C  0.00031159  0.49973207  0.98089726     0.00910
C278        C  0.99991196  0.50037256  0.51927047     0.00910
N279        N  0.14869864  0.49479758  0.69243400    -0.26950
N280        N  0.18480354  0.49642308  0.67278379    -0.34800
C281        C  0.17484717  0.49789930  0.63602363     0.01390
C282        C  0.13030266  0.49716521  0.63279084     0.07420
C283        C  0.11494138  0.49549020  0.66905126    -0.05680
H284        H  0.19815133  0.50043180  0.61352696     0.08090
H285        H  0.08152863  0.49523327  0.67783486     0.09290
Cu286      Cu  0.24491290  0.49846634  0.69851805     0.44170
Cu287      Cu  0.14608216  0.49255223  0.75007944     0.41990
Cu288      Cu  0.24419643  0.49971446  0.80242754     0.43880
N289        N  0.29959845  0.50043837  0.73225127    -0.34330
N290        N  0.29937643  0.50095348  0.76935082    -0.28590
C291        C  0.34034075  0.50135965  0.78179969    -0.04690
C292        C  0.36753518  0.50110731  0.75115097     0.07530
C293        C  0.34069423  0.50059814  0.72023520     0.01320
H294        H  0.34957129  0.50146188  0.81100873     0.08980
H295        H  0.35025859  0.49998594  0.69112785     0.08060
N296        N  0.18389737  0.49405813  0.82762225    -0.35780
N297        N  0.14800648  0.49049077  0.80774904    -0.27960
C298        C  0.11419532  0.48572657  0.83096203    -0.03200
C299        C  0.12939150  0.48609666  0.86734818     0.05410
C300        C  0.17375474  0.49204020  0.86431792     0.03500
H301        H  0.08087227  0.48269394  0.82198688     0.08610
H302        H  0.19687910  0.49419102  0.88698686     0.07440
N303        N  0.85022163  0.51120471  0.69020234    -0.26950
N304        N  0.81376857  0.50435731  0.67162543    -0.34800
C305        C  0.82265926  0.50107475  0.63480301     0.01390
C306        C  0.86683939  0.50709652  0.63007076     0.07420
C307        C  0.88317281  0.51284313  0.66585737    -0.05680
H308        H  0.79896959  0.49295929  0.61345902     0.08090
H309        H  0.91684476  0.51622765  0.67373363     0.09290
Cu310      Cu  0.75458274  0.49850486  0.69858009     0.44170
Cu311      Cu  0.85410619  0.51370087  0.74799000     0.41990
Cu312      Cu  0.75643525  0.49976274  0.80187441     0.43880
N313        N  0.70013094  0.49770296  0.73240885    -0.34330
N314        N  0.70063623  0.49815839  0.76949217    -0.28590
C315        C  0.65976469  0.49874555  0.78208979    -0.04690
C316        C  0.63237940  0.49874173  0.75150426     0.07530
C317        C  0.65900768  0.49800842  0.72051935     0.01320
H318        H  0.65073445  0.49955898  0.81132198     0.08980
H319        H  0.64928626  0.49811504  0.69143404     0.08060
N320        N  0.81733169  0.50587001  0.82605600    -0.35780
N321        N  0.85279383  0.51168003  0.80587585    -0.27960
C322        C  0.88691109  0.51573009  0.82887993    -0.03200
C323        C  0.87238588  0.51278878  0.86544439     0.05410
C324        C  0.82809206  0.50591760  0.86265860     0.03500
H325        H  0.91999897  0.52021674  0.81959802     0.08610
H326        H  0.80537007  0.50192301  0.88548424     0.07440
O327        O  0.49707945  0.43559213  0.72010859    -0.72600
O328        O  0.50287831  0.56535148  0.72059297    -0.73580
O329        O  0.56467594  0.49992425  0.72054576    -0.62200
O330        O  0.43531732  0.50090791  0.72026696    -0.70610
O331        O  0.43514099  0.50026818  0.78246667    -0.70330
O332        O  0.56473027  0.50012640  0.78274517    -0.61420
O333        O  0.50222363  0.56518075  0.78278763    -0.73930
O334        O  0.49753308  0.43527561  0.78230618    -0.72710
Cu335      Cu  0.50000604  0.50047316  0.71822192     1.04560
Cu336      Cu  0.49991279  0.50021214  0.78476467     1.04330
C337        C  0.49661817  0.41501140  0.75112220     0.93600
C338        C  0.50310171  0.58569158  0.75171992     0.92740
C339        C  0.58506268  0.49969090  0.75164258     0.84880
C340        C  0.41486766  0.50075381  0.75131771     0.91150
C341        C  0.07350701  0.53409233  0.59930883    -0.11920
C342        C  0.10338903  0.50146430  0.59903074     0.05080
C343        C  0.10407815  0.47240522  0.56848493    -0.07210
C344        C  0.07249813  0.47512776  0.54030136    -0.07960
C345        C  0.04024533  0.50578415  0.54226767    -0.02510
C346        C  0.04240349  0.53713660  0.57123344     0.04310
N347        N  0.01224309  0.57123094  0.57346791     0.66820
H348        H  0.07394766  0.55710407  0.62218564     0.15720
H349        H  0.07080141  0.45066700  0.51866098     0.15430
N350        N  0.13397503  0.43807998  0.56691152     0.74520
O351        O  0.00028197  0.58492224  0.60495779    -0.38930
O352        O  0.00090161  0.59079028  0.54429781    -0.38870
O353        O  0.14362219  0.41765828  0.59614931    -0.39580
O354        O  0.14676940  0.42462238  0.53560674    -0.39640
C355        C  0.03716836  0.45789266  0.93277030    -0.11920
C356        C  0.03996797  0.49254021  0.95813414     0.05080
C357        C  0.07645783  0.52150480  0.95651509    -0.07210
C358        C  0.10801114  0.51568361  0.92888452    -0.07960
C359        C  0.10262964  0.48340838  0.90152916    -0.02510
C360        C  0.06748031  0.45322831  0.90425242     0.04310
N361        N  0.06135044  0.41847729  0.87777774     0.66820
H362        H  0.00969926  0.43528723  0.93400201     0.15720
H363        H  0.13468152  0.53918325  0.92648116     0.15430
N364        N  0.08043473  0.55887287  0.98010027     0.74520
O365        O  0.09324601  0.39860769  0.86564716    -0.38930
O366        O  0.02374754  0.40515506  0.86881442    -0.38870
O367        O  0.11660752  0.56983731  0.99410309    -0.39580
O368        O  0.05025155  0.58491082  0.98155588    -0.39640
C369        C  0.92682218  0.52614871  0.53839361    -0.11920
C370        C  0.95913190  0.49574959  0.54181789     0.05080
C371        C  0.95621737  0.46529742  0.57149923    -0.07210
C372        C  0.92368318  0.46837546  0.59830972    -0.07960
C373        C  0.89315519  0.50032365  0.59622836    -0.02510
C374        C  0.89361240  0.52868907  0.56513096     0.04310
N375        N  0.86301527  0.56215786  0.56167689     0.66820
H376        H  0.92888797  0.54978399  0.51608466     0.15720
H377        H  0.92299169  0.44632971  0.62190898     0.15430
N378        N  0.98723582  0.43234334  0.57597467     0.74520
O379        O  0.87442517  0.59819433  0.54756652    -0.38930
O380        O  0.82349004  0.55406947  0.56786055    -0.38870
O381        O  0.00011938  0.42227017  0.60825750    -0.39580
O382        O  0.99866322  0.41032789  0.54823254    -0.39640
C383        C  0.89361276  0.48296172  0.92722168    -0.11920
C384        C  0.89948826  0.51490057  0.89956614     0.05080
C385        C  0.93480126  0.54486834  0.90241559    -0.07210
C386        C  0.96466052  0.54044993  0.93132528    -0.07960
C387        C  0.96121091  0.50636152  0.95721511    -0.02510
C388        C  0.92466981  0.47745614  0.95543625     0.04310
N389        N  0.92001023  0.44065757  0.97969184     0.66820
H390        H  0.86678617  0.45964776  0.92482212     0.15720
H391        H  0.99217731  0.56298113  0.93259093     0.15430
N392        N  0.94142729  0.57940415  0.87584152     0.74520
O393        O  0.88325413  0.42921722  0.99220958    -0.38930
O394        O  0.95087763  0.41580638  0.98389679    -0.38870
O395        O  0.91002518  0.60072927  0.86469360    -0.39580
O396        O  0.97917467  0.59120931  0.86599750    -0.39640
C397        C  0.47131273  0.06725326  0.54254390    -0.11920
C398        C  0.50668111  0.04021289  0.54316693     0.05080
C399        C  0.53857342  0.04641295  0.57119577    -0.07210
C400        C  0.53259159  0.07674505  0.59942517    -0.07960
C401        C  0.49593106  0.10160844  0.60042167    -0.02510
C402        C  0.46507567  0.09763599  0.57124969     0.04310
N403        N  0.42601913  0.12132384  0.57164937     0.66820
H404        H  0.44676769  0.06234985  0.52125034     0.15720
H405        H  0.55666740  0.08064709  0.62130425     0.15430
N406        N  0.57689645  0.02173569  0.57173904     0.74520
O407        O  0.40697574  0.12933977  0.54131502    -0.38930
O408        O  0.40760378  0.12974292  0.60216600    -0.38870
O409        O  0.59681776  0.01451671  0.54173613    -0.39580
O410        O  0.59372280  0.01140908  0.60251340    -0.39640
C411        C  0.46741562  0.03511742  0.93181653    -0.11920
C412        C  0.50064330  0.03974075  0.95849129     0.05080
C413        C  0.52632235  0.07862258  0.95870592    -0.07210
C414        C  0.52056143  0.10955916  0.93054597    -0.07960
C415        C  0.49047887  0.10217543  0.90171677    -0.02510
C416        C  0.46220310  0.06539755  0.90331288     0.04310
N417        N  0.42859041  0.05789087  0.87598047     0.66820
H418        H  0.44600571  0.00665391  0.93240647     0.15720
H419        H  0.54209337  0.13795316  0.92958108     0.15430
N420        N  0.55996309  0.08659575  0.98544561     0.74520
O421        O  0.41704797  0.01979937  0.86679147    -0.38930
O422        O  0.40761984  0.08893559  0.86353588    -0.38870
O423        O  0.59641178  0.07132598  0.97960209    -0.39580
O424        O  0.55747276  0.11846902  0.00725116    -0.39640
C425        C  0.53696551  0.93223740  0.54489983    -0.11920
C426        C  0.50174911  0.95913732  0.54168925     0.05080
C427        C  0.46528621  0.95152040  0.56484849    -0.07210
C428        C  0.46727032  0.92120701  0.59377320    -0.07960
C429        C  0.50407911  0.89728096  0.59938907    -0.02510
C430        C  0.53902691  0.90171076  0.57400226     0.04310
N431        N  0.57794672  0.87846927  0.57890531     0.66820
H432        H  0.56457993  0.93767057  0.52674164     0.15720
H433        H  0.44001384  0.91657449  0.61253453     0.15430
N434        N  0.42639878  0.97470502  0.55962946     0.74520
O435        O  0.60083745  0.86982053  0.55086242    -0.38930
O436        O  0.59249226  0.87138459  0.61126694    -0.38870
O437        O  0.41352455  0.98343980  0.52704653    -0.39580
O438        O  0.40217943  0.98200586  0.58713821    -0.39640
C439        C  0.47682804  0.92930692  0.95958814    -0.11920
C440        C  0.51178996  0.95962982  0.95982121     0.05080
C441        C  0.54430278  0.95647086  0.93250339    -0.07210
C442        C  0.53912444  0.92649547  0.90347798    -0.07960
C443        C  0.50287066  0.89821684  0.90175526    -0.02510
C444        C  0.47189633  0.89843709  0.93082973     0.04310
N445        N  0.43387552  0.87024812  0.93030108     0.66820
H446        H  0.45125363  0.93210514  0.97990340     0.15720
H447        H  0.56352536  0.92541537  0.88180417     0.15430
N448        N  0.58252650  0.98392871  0.93379736     0.74520
O449        O  0.41639134  0.85827830  0.96070308    -0.38930
O450        O  0.41482817  0.86120283  0.89988135    -0.38870
O451        O  0.60439681  0.98618420  0.96357705    -0.39580
O452        O  0.59832113  0.99980601  0.90401314    -0.39640
loop_ 
_geom_bond_atom_site_label_1 
_geom_bond_atom_site_label_2 
_geom_bond_distance 
_geom_bond_site_symmetry_2 
_ccdc_geom_bond_type 
C1          C186   1.501       .  S
C1          C214   1.498   1_545  S
C1          C228   1.362       .  D
C2          C172   1.492       .  S
C2          C200   1.494   1_545  S
C2          C227   1.362   1_554  D
N3            N4   1.321       .  A
N3            C7   1.339       .  A
N3          Cu11   2.054       .  S
N4            C5   1.350       .  A
N4          Cu10   2.082       .  S
C5            C6   1.387       .  A
C5            H8   1.082       .  S
C6            C7   1.379       .  A
C6          C175   1.474       .  S
C7            H9   1.083       .  S
Cu10         N13   2.084       .  S
Cu11         N21   2.054       .  S
Cu12         N14   2.079       .  S
Cu12         N20   2.077       .  S
N13          N14   1.325       .  A
N13          C17   1.346       .  A
N14          C15   1.345       .  A
C15          C16   1.382       .  A
C15          H18   1.081       .  S
C16          C17   1.383       .  A
C16         C111   1.470       .  S
C17          H19   1.081       .  S
N20          N21   1.320       .  A
N20          C24   1.349       .  A
N21          C22   1.339       .  A
C22          C23   1.381       .  A
C22          H25   1.083       .  S
C23          C24   1.386       .  A
C23         C189   1.476       .  S
C24          H26   1.082       .  S
N27          N28   1.321       .  A
N27          C31   1.340       .  A
N27         Cu35   2.059       .  S
N28          C29   1.349       .  A
N28         Cu34   2.079       .  S
C29          C30   1.385       .  A
C29          H32   1.082       .  S
C30          C31   1.379       .  A
C30         C203   1.473       .  S
C31          H33   1.083       .  S
Cu34         N37   2.081       .  S
Cu35         N45   2.059       .  S
Cu36         N38   2.079       .  S
Cu36         N44   2.077       .  S
N37          N38   1.325       .  A
N37          C41   1.346       .  A
N38          C39   1.346       .  A
C39          C40   1.382       .  A
C39          H42   1.081       .  S
C40          C41   1.383       .  A
C40         C112   1.470       .  S
C41          H43   1.081       .  S
N44          N45   1.321       .  A
N44          C48   1.348       .  A
N45          C46   1.340       .  A
C46          C47   1.379       .  A
C46          H49   1.083       .  S
C47          C48   1.385       .  A
C47         C217   1.472       .  S
C48          H50   1.082       .  S
C51         C130   1.499       .  S
C51         C161   1.499   1_455  S
C51         C278   1.370   1_455  D
C52         C119   1.500   1_655  S
C52         C144   1.502       .  S
C52         C277   1.370   1_654  D
N53          N54   1.321       .  A
N53          C57   1.340       .  A
N53         Cu61   2.061       .  S
N54          C55   1.349       .  A
N54         Cu60   2.077       .  S
C55          C56   1.386       .  A
C55          H58   1.082       .  S
C56          C57   1.380       .  A
C56         C116   1.475       .  S
C57          H59   1.083       .  S
Cu60         N63   2.079       .  S
Cu61         N71   2.061       .  S
Cu62         N64   2.079       .  S
Cu62         N70   2.077       .  S
N63          N64   1.325       .  A
N63          C67   1.345       .  A
N64          C65   1.346       .  A
C65          C66   1.382       .  A
C65          H68   1.081       .  S
C66          C67   1.382       .  A
C66         C114   1.469       .  S
C67          H69   1.081       .  S
N70          N71   1.321       .  A
N70          C74   1.348       .  A
N71          C72   1.341       .  A
C72          C73   1.382       .  A
C72          H75   1.083       .  S
C73          C74   1.386       .  A
C73         C133   1.477       .  S
C74          H76   1.082       .  S
N77          N78   1.321       .  A
N77          C81   1.342       .  A
N77         Cu85   2.068       .  S
N78          C79   1.348       .  A
N78         Cu84   2.075       .  S
C79          C80   1.386       .  A
C79          H82   1.081       .  S
C80          C81   1.383       .  A
C80         C147   1.478       .  S
C81          H83   1.083       .  S
Cu84         N87   2.076       .  S
Cu85         N95   2.068       .  S
Cu86         N88   2.080       .  S
Cu86         N94   2.078       .  S
N87          N88   1.324       .  A
N87          C91   1.345       .  A
N88          C89   1.346       .  A
C89          C90   1.383       .  A
C89          H92   1.081       .  S
C90          C91   1.382       .  A
C90         C113   1.469       .  S
C91          H93   1.081       .  S
N94          N95   1.322       .  A
N94          C98   1.349       .  A
N95          C96   1.341       .  A
C96          C97   1.383       .  A
C96          H99   1.082       .  S
C97          C98   1.386       .  A
C97         C158   1.480       .  S
C98         H100   1.082       .  S
O101       Cu109   2.009       .  S
O101        C111   1.277       .  A
O102       Cu109   2.010       .  S
O102        C112   1.278       .  A
O103       Cu109   2.009       .  S
O103        C113   1.278       .  A
O104       Cu109   2.009       .  S
O104        C114   1.277       .  A
O105       Cu110   2.011       .  S
O105        C114   1.278       .  A
O106       Cu110   2.012       .  S
O106        C113   1.278       .  A
O107       Cu110   2.012       .  S
O107        C112   1.278       .  A
O108       Cu110   2.012       .  S
O108        C111   1.278       .  A
Cu109      Cu110   2.376       .  S
C115        C116   1.398       .  A
C115        C120   1.397       .  A
C115        H122   1.084       .  S
C116        C117   1.415       .  A
C117        C118   1.409       .  A
C117        N124   1.439       .  S
C118        C119   1.408       .  A
C118        H123   1.082       .  S
C119        C120   1.419       .  A
C120        N121   1.441       .  S
N121        O125   1.263       .  A
N121        O126   1.262       .  A
N124        O127   1.262       .  A
N124        O128   1.263       .  A
C129        C130   1.405       .  A
C129        C134   1.398       .  A
C129        H136   1.082       .  S
C130        C131   1.418       .  A
C131        C132   1.407       .  A
C131        N138   1.433       .  S
C132        C133   1.403       .  A
C132        H137   1.084       .  S
C133        C134   1.411       .  A
C134        N135   1.440       .  S
N135        O139   1.262       .  A
N135        O140   1.263       .  A
N138        O141   1.262       .  A
N138        O142   1.261       .  A
C143        C144   1.407       .  A
C143        C148   1.409       .  A
C143        H150   1.082       .  S
C144        C145   1.419       .  A
C145        C146   1.397       .  A
C145        N152   1.439       .  S
C146        C147   1.398       .  A
C146        H151   1.084       .  S
C147        C148   1.415       .  A
C148        N149   1.438       .  S
N149        O153   1.263       .  A
N149        O154   1.261       .  A
N152        O155   1.263   1_655  A
N152        O156   1.262       .  A
C157        C158   1.404       .  A
C157        C162   1.408       .  A
C157        H164   1.084       .  S
C158        C159   1.411       .  A
C159        C160   1.397       .  A
C159        N166   1.439       .  S
C160        C161   1.404       .  A
C160        H165   1.082       .  S
C161        C162   1.418       .  A
C162        N163   1.434       .  S
N163        O167   1.263       .  A
N163        O168   1.261       .  A
N166        O169   1.262       .  A
N166        O170   1.263       .  A
C171        C172   1.406       .  A
C171        C176   1.410       .  A
C171        H178   1.082       .  S
C172        C173   1.415       .  A
C173        C174   1.396       .  A
C173        N180   1.439       .  S
C174        C175   1.399       .  A
C174        H179   1.084       .  S
C175        C176   1.416       .  A
C176        N177   1.441       .  S
N177        O181   1.263       .  A
N177        O182   1.262       .  A
N180        O183   1.261       .  A
N180        O184   1.263       .  A
C185        C186   1.406       .  A
C185        C190   1.397       .  A
C185        H192   1.083       .  S
C186        C187   1.418       .  A
C187        C188   1.405       .  A
C187        N194   1.428       .  S
C188        C189   1.402       .  A
C188        H193   1.084       .  S
C189        C190   1.411       .  A
C190        N191   1.440       .  S
N191        O195   1.263       .  A
N191        O196   1.263       .  A
N194        O197   1.260       .  A
N194        O198   1.262       .  A
C199        C200   1.404       .  A
C199        C204   1.408       .  A
C199        H206   1.082       .  S
C200        C201   1.414       .  A
C201        C202   1.399       .  A
C201        N208   1.440       .  S
C202        C203   1.400       .  A
C202        H207   1.084       .  S
C203        C204   1.416       .  A
C204        N205   1.440       .  S
N205        O209   1.263       .  A
N205        O210   1.262       .  A
N208        O211   1.262       .  A
N208        O212   1.263       .  A
C213        C214   1.407       .  A
C213        C218   1.407       .  A
C213        H220   1.081       .  S
C214        C215   1.410       .  A
C215        C216   1.397       .  A
C215        N222   1.433       .  S
C216        C217   1.399       .  A
C216        H221   1.084       .  S
C217        C218   1.415       .  A
C218        N219   1.440       .  S
N219        O223   1.263       .  A
N219        O224   1.262       .  A
N222        O225   1.261       .  A
N222        O226   1.263       .  A
C227        C412   1.501       .  S
C227        C440   1.498   1_545  S
C228        C398   1.492       .  S
C228        C426   1.494   1_545  S
N229        N230   1.321       .  A
N229        C233   1.339       .  A
N229       Cu237   2.054       .  S
N230        C231   1.350       .  A
N230       Cu236   2.082       .  S
C231        C232   1.387       .  A
C231        H234   1.082       .  S
C232        C233   1.379       .  A
C232        C401   1.474       .  S
C233        H235   1.083       .  S
Cu236       N239   2.084       .  S
Cu237       N247   2.054       .  S
Cu238       N240   2.079       .  S
Cu238       N246   2.077       .  S
N239        N240   1.325       .  A
N239        C243   1.346       .  A
N240        C241   1.345       .  A
C241        C242   1.382       .  A
C241        H244   1.081       .  S
C242        C243   1.383       .  A
C242        C337   1.470       .  S
C243        H245   1.081       .  S
N246        N247   1.320       .  A
N246        C250   1.349       .  A
N247        C248   1.339       .  A
C248        C249   1.381       .  A
C248        H251   1.083       .  S
C249        C250   1.386       .  A
C249        C415   1.476       .  S
C250        H252   1.082       .  S
N253        N254   1.321       .  A
N253        C257   1.340       .  A
N253       Cu261   2.059       .  S
N254        C255   1.349       .  A
N254       Cu260   2.079       .  S
C255        C256   1.385       .  A
C255        H258   1.082       .  S
C256        C257   1.379       .  A
C256        C429   1.473       .  S
C257        H259   1.083       .  S
Cu260       N263   2.081       .  S
Cu261       N271   2.059       .  S
Cu262       N264   2.079       .  S
Cu262       N270   2.077       .  S
N263        N264   1.325       .  A
N263        C267   1.346       .  A
N264        C265   1.346       .  A
C265        C266   1.382       .  A
C265        H268   1.081       .  S
C266        C267   1.383       .  A
C266        C338   1.470       .  S
C267        H269   1.081       .  S
N270        N271   1.321       .  A
N270        C274   1.348       .  A
N271        C272   1.340       .  A
C272        C273   1.379       .  A
C272        H275   1.083       .  S
C273        C274   1.385       .  A
C273        C443   1.472       .  S
C274        H276   1.082       .  S
C277        C356   1.499       .  S
C277        C387   1.499   1_455  S
C278        C345   1.500   1_655  S
C278        C370   1.502       .  S
N279        N280   1.321       .  A
N279        C283   1.340       .  A
N279       Cu287   2.061       .  S
N280        C281   1.349       .  A
N280       Cu286   2.077       .  S
C281        C282   1.386       .  A
C281        H284   1.082       .  S
C282        C283   1.380       .  A
C282        C342   1.475       .  S
C283        H285   1.083       .  S
Cu286       N289   2.079       .  S
Cu287       N297   2.061       .  S
Cu288       N290   2.079       .  S
Cu288       N296   2.077       .  S
N289        N290   1.325       .  A
N289        C293   1.345       .  A
N290        C291   1.346       .  A
C291        C292   1.382       .  A
C291        H294   1.081       .  S
C292        C293   1.382       .  A
C292        C340   1.469       .  S
C293        H295   1.081       .  S
N296        N297   1.321       .  A
N296        C300   1.348       .  A
N297        C298   1.341       .  A
C298        C299   1.382       .  A
C298        H301   1.083       .  S
C299        C300   1.386       .  A
C299        C359   1.477       .  S
C300        H302   1.082       .  S
N303        N304   1.321       .  A
N303        C307   1.342       .  A
N303       Cu311   2.068       .  S
N304        C305   1.348       .  A
N304       Cu310   2.075       .  S
C305        C306   1.386       .  A
C305        H308   1.081       .  S
C306        C307   1.383       .  A
C306        C373   1.478       .  S
C307        H309   1.083       .  S
Cu310       N313   2.076       .  S
Cu311       N321   2.068       .  S
Cu312       N314   2.080       .  S
Cu312       N320   2.078       .  S
N313        N314   1.324       .  A
N313        C317   1.345       .  A
N314        C315   1.346       .  A
C315        C316   1.383       .  A
C315        H318   1.081       .  S
C316        C317   1.382       .  A
C316        C339   1.469       .  S
C317        H319   1.081       .  S
N320        N321   1.322       .  A
N320        C324   1.349       .  A
N321        C322   1.341       .  A
C322        C323   1.383       .  A
C322        H325   1.082       .  S
C323        C324   1.386       .  A
C323        C384   1.480       .  S
C324        H326   1.082       .  S
O327       Cu335   2.009       .  S
O327        C337   1.277       .  A
O328       Cu335   2.010       .  S
O328        C338   1.278       .  A
O329       Cu335   2.009       .  S
O329        C339   1.278       .  A
O330       Cu335   2.009       .  S
O330        C340   1.277       .  A
O331       Cu336   2.011       .  S
O331        C340   1.278       .  A
O332       Cu336   2.012       .  S
O332        C339   1.278       .  A
O333       Cu336   2.012       .  S
O333        C338   1.278       .  A
O334       Cu336   2.012       .  S
O334        C337   1.278       .  A
Cu335      Cu336   2.376       .  S
C341        C342   1.398       .  A
C341        C346   1.397       .  A
C341        H348   1.084       .  S
C342        C343   1.415       .  A
C343        C344   1.409       .  A
C343        N350   1.439       .  S
C344        C345   1.408       .  A
C344        H349   1.082       .  S
C345        C346   1.419       .  A
C346        N347   1.441       .  S
N347        O351   1.263       .  A
N347        O352   1.262       .  A
N350        O353   1.262       .  A
N350        O354   1.263       .  A
C355        C356   1.405       .  A
C355        C360   1.398       .  A
C355        H362   1.082       .  S
C356        C357   1.418       .  A
C357        C358   1.407       .  A
C357        N364   1.433       .  S
C358        C359   1.403       .  A
C358        H363   1.084       .  S
C359        C360   1.411       .  A
C360        N361   1.440       .  S
N361        O365   1.262       .  A
N361        O366   1.263       .  A
N364        O367   1.262       .  A
N364        O368   1.261       .  A
C369        C370   1.407       .  A
C369        C374   1.409       .  A
C369        H376   1.082       .  S
C370        C371   1.419       .  A
C371        C372   1.397       .  A
C371        N378   1.439       .  S
C372        C373   1.398       .  A
C372        H377   1.084       .  S
C373        C374   1.415       .  A
C374        N375   1.438       .  S
N375        O379   1.263       .  A
N375        O380   1.261       .  A
N378        O381   1.263   1_655  A
N378        O382   1.262       .  A
C383        C384   1.404       .  A
C383        C388   1.408       .  A
C383        H390   1.084       .  S
C384        C385   1.411       .  A
C385        C386   1.397       .  A
C385        N392   1.439       .  S
C386        C387   1.404       .  A
C386        H391   1.082       .  S
C387        C388   1.418       .  A
C388        N389   1.434       .  S
N389        O393   1.263       .  A
N389        O394   1.261       .  A
N392        O395   1.262       .  A
N392        O396   1.263       .  A
C397        C398   1.406       .  A
C397        C402   1.410       .  A
C397        H404   1.082       .  S
C398        C399   1.415       .  A
C399        C400   1.396       .  A
C399        N406   1.439       .  S
C400        C401   1.399       .  A
C400        H405   1.084       .  S
C401        C402   1.416       .  A
C402        N403   1.441       .  S
N403        O407   1.263       .  A
N403        O408   1.262       .  A
N406        O409   1.261       .  A
N406        O410   1.263       .  A
C411        C412   1.406       .  A
C411        C416   1.397       .  A
C411        H418   1.083       .  S
C412        C413   1.418       .  A
C413        C414   1.405       .  A
C413        N420   1.428       .  S
C414        C415   1.402       .  A
C414        H419   1.084       .  S
C415        C416   1.411       .  A
C416        N417   1.440       .  S
N417        O421   1.263       .  A
N417        O422   1.263       .  A
N420        O423   1.260       .  A
N420        O424   1.262   1_556  A
C425        C426   1.404       .  A
C425        C430   1.408       .  A
C425        H432   1.082       .  S
C426        C427   1.414       .  A
C427        C428   1.399       .  A
C427        N434   1.440       .  S
C428        C429   1.400       .  A
C428        H433   1.084       .  S
C429        C430   1.416       .  A
C430        N431   1.440       .  S
N431        O435   1.263       .  A
N431        O436   1.262       .  A
N434        O437   1.262       .  A
N434        O438   1.263       .  A
C439        C440   1.407       .  A
C439        C444   1.407       .  A
C439        H446   1.081       .  S
C440        C441   1.410       .  A
C441        C442   1.397       .  A
C441        N448   1.433       .  S
C442        C443   1.399       .  A
C442        H447   1.084       .  S
C443        C444   1.415       .  A
C444        N445   1.440       .  S
N445        O449   1.263       .  A
N445        O450   1.262       .  A
N448        O451   1.261       .  A
N448        O452   1.263       .  A
