geometry optimzed in LAMMPS
_audit_creation_date              2020-11-30 
_audit_creation_method            'lammps2cif' 
_symmetry_space_group_name_H-M    'P1' 
_symmetry_Int_Tables_number       1 
_symmetry_cell_setting            triclinic 
loop_ 
_symmetry_equiv_pos_as_xyz 
  x,y,z 
_cell_length_a                    43.8281579 
_cell_length_b                    43.78459104083619 
_cell_length_c                    24.8173904985167 
_cell_angle_alpha                 88.10032819338421 
_cell_angle_beta                  90.45355281007872 
_cell_angle_gamma                 119.52631499674591 
loop_ 
_atom_site_label 
_atom_site_type_symbol 
_atom_site_fract_x 
_atom_site_fract_y 
_atom_site_fract_z 
_atom_site_charge 
C1          C  0.38910356  0.30644687  0.99380420    -0.03200
C2          C  0.05240846  0.37499817  0.99406108    -0.03200
C3          C  0.14268850  0.04047588  0.01221035    -0.03200
C4          C  0.07907428  0.13796384  0.50624009    -0.03200
C5          C  0.41769912  0.06612445  0.00583812    -0.03200
C6          C  0.32619814  0.40599625  0.99585705    -0.03200
O7          O  0.20404122  0.36579676  0.31571239    -0.82500
C8          C  0.13418435  0.24748790  0.18583702     0.96900
O9          O  0.16129361  0.25599566  0.21313498    -0.71600
O10         O  0.21340789  0.31816964  0.19532926    -0.75200
Al11       Al  0.18841493  0.29395183  0.25816808     1.49000
C12         C  0.22602108  0.34995308  0.18163398     0.92100
O13         O  0.15411189  0.36059132  0.18785626    -0.81400
O14         O  0.10507559  0.30509917  0.31465436    -0.75000
Al15       Al  0.17798823  0.35977561  0.25197639     1.90100
O16         O  0.10359382  0.31335161  0.20400701    -0.74000
O17         O  0.11255682  0.24975021  0.30390419    -0.73900
O18         O  0.11475180  0.26051152  0.19379652    -0.79600
O19         O  0.16747318  0.26610399  0.32106162    -0.77800
O20         O  0.15982896  0.31283048  0.25483799    -1.13900
O21         O  0.22188953  0.32765511  0.30467857    -0.73100
C22         C  0.22283290  0.35262210  0.32971399     0.97600
C23         C  0.12230383  0.34129146  0.17658837     0.94000
Al24       Al  0.11325023  0.28474354  0.25420547     1.55600
O25         O  0.21706576  0.36932078  0.20583032    -0.77700
C26         C  0.13541433  0.24630813  0.33065736     0.98200
C27         C  0.11665203  0.33709451  0.32325709     0.93100
O28         O  0.14281603  0.36049530  0.29708143    -0.83000
O29         O  0.36425424  0.18790384  0.19354875    -0.82500
C30         C  0.25162775  0.09430216  0.32968806     0.96900
O31         O  0.25302801  0.11900116  0.29979565    -0.71600
O32         O  0.30828390  0.18218214  0.30885803    -0.75200
Al33       Al  0.28695587  0.15223364  0.24922427     1.49000
C34         C  0.33979322  0.19863675  0.32404853     0.92100
O35         O  0.36553418  0.13667823  0.31714975    -0.81400
O36         O  0.31634450  0.08523249  0.19035460    -0.75000
Al37       Al  0.36108517  0.15941024  0.25460629     1.90100
O38         O  0.33093012  0.08291017  0.29495588    -0.74000
O39         O  0.25343268  0.07487171  0.21760440    -0.73900
O40         O  0.27182636  0.08190469  0.32197430    -0.79600
O41         O  0.26165364  0.12569528  0.18847886    -0.77800
O42         O  0.31448980  0.13285421  0.25300793    -1.13900
O43         O  0.31512399  0.18888800  0.19846980    -0.73100
C44         C  0.34504727  0.20025191  0.17764613     0.97600
C45         C  0.35542316  0.10462160  0.32302817     0.94000
Al46       Al  0.29498143  0.08574876  0.25593864     1.55600
O47         O  0.36225622  0.19284585  0.30256758    -0.77700
C48         C  0.24485253  0.09265621  0.18703549     0.98200
C49         C  0.34895906  0.10241599  0.18097960     0.93100
O50         O  0.36893154  0.12974479  0.20678402    -0.83000
C51         C  0.31005105  0.38149427  0.09988027    -0.02500
C52         C  0.30285763  0.39468946  0.05008848     0.07100
C53         C  0.27124786  0.39746914  0.05119180    -0.02700
C54         C  0.24569999  0.38091089  0.09200579    -0.02700
C55         C  0.25189418  0.36463402  0.13673958     0.07300
C56         C  0.28395703  0.36488975  0.14072207    -0.02900
Br57       Br  0.29353069  0.34587541  0.20649542    -0.01400
Br58       Br  0.35636986  0.39866625  0.12787438    -0.01500
Br59       Br  0.20129544  0.38009277  0.08572307    -0.01400
Br60       Br  0.26833863  0.43347084  0.52236166    -0.01400
C61         C  0.27387649  0.40178990  0.37295156    -0.02500
C62         C  0.24701433  0.36703553  0.37542682     0.07100
C63         C  0.24363726  0.34583203  0.42076825    -0.02700
C64         C  0.26978955  0.35750095  0.46047787    -0.02700
C65         C  0.29798859  0.39376532  0.46062911     0.07300
C66         C  0.29698976  0.41605268  0.41668354    -0.02900
Br67       Br  0.32110045  0.46600460  0.41189445    -0.01400
Br68       Br  0.27955185  0.42944534  0.30690053    -0.01500
Br69       Br  0.26606750  0.32071366  0.51093135    -0.01400
Br70       Br  0.20178315  0.30081583  0.42933481    -0.01400
C71         C  0.36633708  0.05694498  0.44370907    -0.02500
C72         C  0.40411034  0.07491143  0.45107938     0.07100
C73         C  0.42519766  0.10051375  0.40950408    -0.02700
C74         C  0.40894137  0.11000599  0.36790039    -0.02700
C75         C  0.37220970  0.09241879  0.36324288     0.07300
C76         C  0.35129519  0.06429372  0.39866233    -0.02900
Br77       Br  0.30085761  0.03703675  0.38851519    -0.01400
Br78       Br  0.33237485  0.02509254  0.49776056    -0.01500
Br79       Br  0.43744676  0.14741266  0.31575410    -0.01400
Br80       Br  0.47565903  0.12334416  0.40247812    -0.01400
C81         C  0.35983898  0.09782637  0.08509223    -0.02500
C82         C  0.36435374  0.09105367  0.13859202     0.07100
C83         C  0.38844493  0.07983873  0.15163735    -0.02700
C84         C  0.40887260  0.07605248  0.11111709    -0.02700
C85         C  0.40265114  0.07953163  0.05450071     0.07300
C86         C  0.38199904  0.09728465  0.04493685    -0.02900
Br87       Br  0.39140384  0.13190377  0.48779908    -0.01400
Br88       Br  0.32350960  0.10947405  0.06754673    -0.01500
Br89       Br  0.45261657  0.08191950  0.13931129    -0.01400
Br90       Br  0.39309611  0.06950984  0.22667678    -0.01400
C91         C  0.38606249  0.50245568  0.04854298    -0.02500
C92         C  0.40118811  0.02420424  0.00476340     0.07100
C93         C  0.39604778  0.50214818  0.46284329    -0.02700
C94         C  0.37926361  0.46497509  0.46884620    -0.02700
C95         C  0.35244163  0.44786877  0.99792650     0.07300
C96         C  0.35665720  0.46917340  0.04431817    -0.02900
Br97       Br  0.32830450  0.46140003  0.10825905    -0.01400
Br98       Br  0.41956060  0.00431638  0.10567177    -0.01500
Br99       Br  0.39484149  0.44265652  0.41880243    -0.01400
Br100      Br  0.41490649  0.02706401  0.38034540    -0.01400
C101        C  0.10285253  0.18539764  0.16140059    -0.02500
C102        C  0.12422030  0.22049155  0.14579685     0.07100
C103        C  0.13861194  0.22917715  0.09397644    -0.02700
C104        C  0.12656480  0.20330770  0.05458022    -0.02700
C105        C  0.09841099  0.16778391  0.06670228     0.07300
C106        C  0.09276536  0.15897566  0.12334570    -0.02900
Br107      Br  0.06959981  0.11223156  0.15340511    -0.01400
Br108      Br  0.08404102  0.17403428  0.23438451    -0.01500
Br109      Br  0.15755459  0.21645128  0.99253772    -0.01400
Br110      Br  0.17719333  0.27623244  0.07923889    -0.01400
C111        C  0.10405258  0.21946110  0.41649949    -0.02500
C112        C  0.12387453  0.21855467  0.37373196     0.07100
C113        C  0.12754490  0.18849509  0.36867515    -0.02700
C114        C  0.11101244  0.15953655  0.40668751    -0.02700
C115        C  0.08976103  0.16049035  0.45009665     0.07300
C116        C  0.08138350  0.18816892  0.44383760    -0.02900
Br117      Br  0.03669695  0.17772596  0.41605614    -0.01400
Br118      Br  0.10190725  0.26132896  0.43121101    -0.00300
Br119      Br  0.11595634  0.11956061  0.39126784    -0.01400
Br120      Br  0.15762586  0.18864610  0.31192355    -0.01400
C121        C  0.01419115  0.12941073  0.05684704    -0.02500
C122        C  0.03700967  0.11978377  0.50737722     0.07100
C123        C  0.01594289  0.08818934  0.48042502    -0.02700
C124        C  0.48152412  0.06932311  0.48350904    -0.02700
C125        C  0.45966764  0.08433447  0.00874750     0.07300
C126        C  0.48066145  0.11821016  0.03076021    -0.02900
Br127      Br  0.46519301  0.15255917  0.03603910    -0.01400
Br128      Br  0.02532195  0.15706986  0.12093478    -0.01500
Br129      Br  0.46778204  0.02100792  0.47033813    -0.01400
Br130      Br  0.03126074  0.07628294  0.41586905    -0.01400
C131        C  0.19018448  0.08654791  0.14381208    -0.02500
C132        C  0.21407143  0.07415184  0.15111413     0.07100
C133        C  0.20714340  0.04293813  0.12557226    -0.02700
C134        C  0.18002011  0.02789874  0.08692884    -0.02700
C135        C  0.16040650  0.04493330  0.07064873     0.07300
C136        C  0.16152170  0.06944585  0.10901105    -0.02900
Br137      Br  0.12042870  0.07063286  0.13324900    -0.01400
Br138      Br  0.19540607  0.12652429  0.18276259    -0.01500
Br139      Br  0.16911890  0.98221838  0.06414326    -0.01400
Br140      Br  0.23896624  0.02431773  0.13430339    -0.01400
C141        C  0.18998598  0.06731609  0.36216399    -0.02500
C142        C  0.22536277  0.07974870  0.37369491     0.07100
C143        C  0.23606332  0.08183062  0.42711874    -0.02700
C144        C  0.21198809  0.07433906  0.46966733    -0.02700
C145        C  0.17448137  0.05729626  0.46000355     0.07300
C146        C  0.16483545  0.05667016  0.40404793    -0.02900
Br147      Br  0.11743624  0.03901895  0.38002439    -0.01400
Br148      Br  0.17544304  0.05989415  0.28762673    -0.01500
Br149      Br  0.23551221  0.10287382  0.53053102    -0.01400
Br150      Br  0.28539259  0.09929689  0.44158075    -0.01400
C151        C  0.14472988  0.10264414  0.01216557    -0.02500
C152        C  0.12403366  0.06488851  0.00906552     0.07100
C153        C  0.08696498  0.05253026  0.01168275    -0.02700
C154        C  0.07326006  0.07445152  0.02780943    -0.02700
C155        C  0.09400975  0.11050520  0.51416628     0.07300
C156        C  0.13071352  0.12373753  0.02921572    -0.02900
Br157      Br  0.16290783  0.15921686  0.07707982    -0.01400
Br158      Br  0.18997485  0.13195076  0.97836622    -0.01500
Br159      Br  0.03525016  0.04529432  0.56256622    -0.01400
Br160      Br  0.05139660  0.00942649  0.98180430    -0.01400
C161        C  0.10330119  0.37647581  0.44876497    -0.02500
C162        C  0.06593079  0.36549856  0.44834957     0.07100
C163        C  0.04633350  0.34364997  0.40434929    -0.02700
C164        C  0.06362056  0.33665138  0.36226704    -0.02700
C165        C  0.09951553  0.34728047  0.36504046     0.07300
C166        C  0.11886482  0.36618860  0.40899920    -0.02900
Br167      Br  0.16699292  0.37613490  0.41662118    -0.01400
Br168      Br  0.13779439  0.40265595  0.99462658    -0.01500
Br169      Br  0.03796086  0.31174966  0.29952119    -0.01400
Br170      Br  0.99596758  0.31532145  0.40323000    -0.01400
C171        C  0.09418599  0.32864980  0.08608249    -0.02500
C172        C  0.10628200  0.35057583  0.13008758     0.07100
C173        C  0.09766809  0.37728979  0.13356882    -0.02700
C174        C  0.07411670  0.37963305  0.09653273    -0.02700
C175        C  0.06594508  0.36199276  0.04643122     0.07300
C176        C  0.07412512  0.33340382  0.04515478    -0.02900
Br177      Br  0.05390547  0.29510616  0.99470603    -0.01400
Br178      Br  0.10684386  0.29244768  0.08092845    -0.01500
Br179      Br  0.04007046  0.38696909  0.13280165    -0.01400
Br180      Br  0.11493275  0.40847102  0.19331333    -0.01400
C181        C  0.06585903  0.43929586  0.02574783    -0.02500
C182        C  0.07149495  0.41802455  0.98884610     0.07100
C183        C  0.09429890  0.44026861  0.45146915    -0.02700
C184        C  0.12161106  0.47436588  0.46114932    -0.02700
C185        C  0.11745662  0.99822137  0.00284072     0.07300
C186        C  0.09118510  0.47542294  0.03288626    -0.02900
Br187      Br  0.08249076  0.98787682  0.10841895    -0.01400
Br188      Br  0.01863832  0.42759060  0.04687575    -0.01500
Br189      Br  0.16892949  0.99057924  0.42136962    -0.01400
Br190      Br  0.09192789  0.42903711  0.37509758    -0.01400
C191        C  0.38253013  0.25784691  0.36097121    -0.02500
C192        C  0.35109152  0.22558013  0.36690279     0.07100
C193        C  0.32959335  0.22037305  0.41185992    -0.02700
C194        C  0.34011238  0.24589004  0.45205476    -0.02700
C195        C  0.37313080  0.27913376  0.44825079     0.07300
C196        C  0.39135717  0.28513241  0.39763627    -0.02900
Br197      Br  0.41699828  0.33052242  0.36318857    -0.01400
Br198      Br  0.41256238  0.26682114  0.29836091    -0.01500
Br199      Br  0.30306202  0.23648376  0.50364992    -0.01400
Br200      Br  0.28461365  0.17775140  0.41864775    -0.01400
C201        C  0.37776204  0.22796474  0.09048636    -0.02500
C202        C  0.35745001  0.22825368  0.13378195     0.07100
C203        C  0.34815970  0.25485788  0.13450226    -0.02700
C204        C  0.35545683  0.27867200  0.08987812    -0.02700
C205        C  0.37711622  0.27973601  0.04516726     0.07300
C206        C  0.38740565  0.25273091  0.04705980    -0.02900
Br207      Br  0.41588891  0.24786093  0.99131399    -0.01400
Br208      Br  0.39421305  0.19410035  0.09074309    -0.01500
Br209      Br  0.32762625  0.30206553  0.09073914    -0.01400
Br210      Br  0.32724923  0.26059827  0.19953398    -0.01400
C211        C  0.45299471  0.35907391  0.46887643    -0.02500
C212        C  0.43243277  0.33019444  0.99689172     0.07100
C213        C  0.45297023  0.32425036  0.03741745    -0.02700
C214        C  0.98809844  0.33215133  0.03602555    -0.02700
C215        C  0.01037796  0.35830266  0.99647494     0.07300
C216        C  0.98957592  0.37230902  0.46488108    -0.02900
Br217      Br  0.01259510  0.40473063  0.40522889    -0.01400
Br218      Br  0.43797478  0.39220255  0.44408707    -0.01500
Br219      Br  0.99739980  0.29859758  0.07532589    -0.01400
Br220      Br  0.44097267  0.31324225  0.11431623    -0.01400
C221        C  0.34881277  0.33277497  0.45736739    -0.02500
C222        C  0.37289015  0.33269951  0.99071792     0.07100
C223        C  0.38549462  0.36213314  0.02558374    -0.02700
C224        C  0.37671765  0.38919324  0.01808863    -0.02700
C225        C  0.34802998  0.38502691  0.98635740     0.07300
C226        C  0.34101897  0.36067713  0.45395791    -0.02900
Br227      Br  0.33127930  0.37111362  0.37994752    -0.01400
Br228      Br  0.32251121  0.29804681  0.40350644    -0.01500
Br229      Br  0.41463529  0.43552282  0.03235107    -0.01400
Br230      Br  0.41536917  0.36859314  0.08637710    -0.01400
C231        C  0.38786859  0.30489418  0.49897364    -0.03200
C232        C  0.05000593  0.37625747  0.49753285    -0.03200
C233        C  0.14469580  0.04093794  0.50566884    -0.03200
C234        C  0.07869263  0.13943529  0.02166732    -0.03200
C235        C  0.41827295  0.06509429  0.50361079    -0.03200
C236        C  0.32650715  0.40508011  0.50797028    -0.03200
O237        O  0.19862546  0.35737086  0.81164653    -0.82500
C238        C  0.12586654  0.24044290  0.67919086     0.96900
O239        O  0.15097059  0.24619393  0.70994044    -0.71600
O240        O  0.20552666  0.30764101  0.69396625    -0.75200
Al241      Al  0.17865321  0.28356363  0.75618267     1.49000
C242        C  0.21880467  0.33964371  0.68038413     0.92100
O243        O  0.14948205  0.35393749  0.68475523    -0.81400
O244        O  0.09752816  0.29813550  0.80789362    -0.75000
Al245      Al  0.17217768  0.35154797  0.74859150     1.90100
O246        O  0.09787414  0.30810127  0.69905567    -0.74000
O247        O  0.10114486  0.24038749  0.79490304    -0.73900
O248        O  0.10755163  0.25488638  0.68566629    -0.79600
O249        O  0.15477407  0.25599596  0.81929125    -0.77800
O250        O  0.15211447  0.30441461  0.75090439    -1.13900
O251        O  0.21308306  0.31662353  0.80300349    -0.73100
C252        C  0.21700174  0.34371696  0.82535839     0.97600
C253        C  0.11770429  0.33606950  0.67302381     0.94000
Al254      Al  0.10533490  0.27782074  0.74725439     1.55600
O255        O  0.21009831  0.35934947  0.70361392    -0.77700
C256        C  0.12211077  0.23639609  0.82556155     0.98200
C257        C  0.11098825  0.33021098  0.81803913     0.93100
O258        O  0.13795575  0.35318062  0.79315514    -0.83000
O259        O  0.36149696  0.18178567  0.69215847    -0.82500
C260        C  0.24746673  0.09114982  0.83086207     0.96900
O261        O  0.25028033  0.11661346  0.80146117    -0.71600
O262        O  0.30767659  0.17828036  0.81317333    -0.75200
Al263      Al  0.28551576  0.14979392  0.75200946     1.49000
C264        C  0.33979174  0.19532230  0.82531896     0.92100
O265        O  0.36271519  0.13216765  0.81712918    -0.81400
O266        O  0.31290329  0.08033572  0.69077008    -0.75000
Al267      Al  0.35855336  0.15448925  0.75425622     1.90100
O268        O  0.32652787  0.07826654  0.79668645    -0.74000
O269        O  0.25054012  0.07286811  0.71713376    -0.73900
O270        O  0.26698965  0.07790464  0.82270400    -0.79600
O271        O  0.25969014  0.12457387  0.69038721    -0.77800
O272        O  0.31179139  0.12891667  0.75410218    -1.13900
O273        O  0.31508910  0.18716999  0.70256855    -0.73100
C274        C  0.34401469  0.19663691  0.67935730     0.97600
C275        C  0.35204973  0.09999991  0.82333515     0.94000
Al276      Al  0.29112617  0.08176319  0.75667109     1.55600
O277        O  0.36149764  0.18962441  0.80096501    -0.77700
C278        C  0.24274017  0.09156310  0.68712431     0.98200
C279        C  0.34561002  0.09676242  0.68136983     0.93100
O280        O  0.36572873  0.12378188  0.70751764    -0.83000
C281        C  0.30608780  0.37437958  0.60849519    -0.02500
C282        C  0.30224500  0.39241257  0.56117086     0.07100
C283        C  0.27132936  0.39620076  0.56164576    -0.02700
C284        C  0.24291736  0.37565017  0.59629876    -0.02700
C285        C  0.24603914  0.35518636  0.63800184     0.07300
C286        C  0.27771627  0.35513770  0.64497528    -0.02900
Br287      Br  0.28325633  0.33208518  0.70986391    -0.01400
Br288      Br  0.35011236  0.38642355  0.64147396    -0.01500
Br289      Br  0.19883141  0.37494385  0.58507610    -0.01400
Br290      Br  0.26483432  0.43075933  0.00607109    -0.01400
C291        C  0.26960856  0.39544137  0.86252166    -0.02500
C292        C  0.24387234  0.36006346  0.86777635     0.07100
C293        C  0.24373060  0.34034878  0.91318388    -0.02700
C294        C  0.27000763  0.35510361  0.95258440    -0.02700
C295        C  0.29673292  0.39206145  0.94985309     0.07300
C296        C  0.29386683  0.41220831  0.90434216    -0.02900
Br297      Br  0.31709666  0.46245037  0.89584235    -0.01400
Br298      Br  0.27351477  0.42007361  0.79412159    -0.01500
Br299      Br  0.26844317  0.32158724  0.00780889    -0.01400
Br300      Br  0.20695579  0.29216449  0.92056908    -0.01400
C301        C  0.36506249  0.05506998  0.94510458    -0.02500
C302        C  0.40283160  0.07439360  0.95255101     0.07100
C303        C  0.42334686  0.09944950  0.90993594    -0.02700
C304        C  0.40637380  0.10649056  0.86654652    -0.02700
C305        C  0.36960581  0.08801161  0.86248417     0.07300
C306        C  0.34949440  0.06022379  0.89874189    -0.02900
Br307      Br  0.29954817  0.03000884  0.88694706    -0.01400
Br308      Br  0.33166935  0.02462700  0.00063129    -0.01500
Br309      Br  0.43382867  0.14115075  0.81027327    -0.01400
Br310      Br  0.47399816  0.12559375  0.90488553    -0.01400
C311        C  0.36014862  0.09683688  0.58493499    -0.02500
C312        C  0.36115811  0.08582184  0.63769318     0.07100
C313        C  0.38353478  0.07222105  0.64978219    -0.02700
C314        C  0.40584794  0.07078260  0.60972268    -0.02700
C315        C  0.40244802  0.07759480  0.55330948     0.07300
C316        C  0.38311813  0.09692129  0.54508042    -0.02900
Br317      Br  0.38783553  0.13027518  0.98554629    -0.01400
Br318      Br  0.32695606  0.11292675  0.56839952    -0.01500
Br319      Br  0.44925378  0.07735909  0.63988480    -0.01400
Br320      Br  0.38383133  0.05601298  0.72307561    -0.01400
C321        C  0.38591237  0.50363234  0.55686027    -0.02500
C322        C  0.40123593  0.02316538  0.49995463     0.07100
C323        C  0.39530056  0.50514801  0.95354525    -0.02700
C324        C  0.37735524  0.46760159  0.95556947    -0.02700
C325        C  0.35368634  0.44657834  0.51069746     0.07300
C326        C  0.35794582  0.46862461  0.55602500    -0.02900
Br327      Br  0.33185858  0.45685739  0.62365304    -0.01400
Br328      Br  0.41885353  0.00102551  0.59965408    -0.01500
Br329      Br  0.38878837  0.44620072  0.89856792    -0.01400
Br330      Br  0.41715707  0.02738194  0.88624640    -0.01400
C331        C  0.09175523  0.18000670  0.64824720    -0.02500
C332        C  0.11668071  0.21485255  0.63694820     0.07100
C333        C  0.13462865  0.22452243  0.58762622    -0.02700
C334        C  0.12537722  0.19981006  0.54684822    -0.02700
C335        C  0.09575291  0.16455380  0.55411024     0.07300
C336        C  0.08239670  0.15477699  0.60849599    -0.02900
Br337      Br  0.04985875  0.10832992  0.63279001    -0.01400
Br338      Br  0.06933770  0.16757769  0.71896696    -0.01500
Br339      Br  0.16127431  0.21383685  0.49111827    -0.01400
Br340      Br  0.17367558  0.27174953  0.57786693    -0.01400
C341        C  0.08482983  0.20886063  0.90822307    -0.02500
C342        C  0.10790872  0.20876638  0.86988788     0.07100
C343        C  0.11740063  0.18255218  0.87424095    -0.02700
C344        C  0.10497549  0.15717484  0.91792561    -0.02700
C345        C  0.08646345  0.16059409  0.96387425     0.07300
C346        C  0.07650528  0.18758532  0.95589227    -0.02900
Br347      Br  0.05759201  0.20364992  0.01091838    -0.01400
Br348      Br  0.06643043  0.24083465  0.89717972    -0.00300
Br349      Br  0.11462397  0.11945568  0.90708204    -0.01400
Br350      Br  0.14727412  0.18138290  0.81788926    -0.01400
C351        C  0.01729225  0.13623919  0.52496152    -0.02500
C352        C  0.03607388  0.11965598  0.02590757     0.07100
C353        C  0.01528686  0.09191660  0.99037766    -0.02700
C354        C  0.48065311  0.07025620  0.98803070    -0.02700
C355        C  0.46044453  0.08261599  0.50703942     0.07300
C356        C  0.48167505  0.11546163  0.53155666    -0.02900
Br357      Br  0.46701301  0.15009571  0.54001148    -0.01400
Br358      Br  0.03853895  0.18348138  0.55322023    -0.01500
Br359      Br  0.46774500  0.02143784  0.98073364    -0.01400
Br360      Br  0.03125613  0.08198163  0.92507661    -0.01400
C361        C  0.18900729  0.08604248  0.64047801    -0.02500
C362        C  0.21304087  0.07389604  0.64889096     0.07100
C363        C  0.20744941  0.04357404  0.62198545    -0.02700
C364        C  0.18164292  0.02918225  0.58140147    -0.02700
C365        C  0.16160526  0.04572592  0.56475745     0.07300
C366        C  0.16136398  0.06953852  0.60349272    -0.02900
Br367      Br  0.11980807  0.07140894  0.62398643    -0.01400
Br368      Br  0.19328245  0.12544762  0.67989698    -0.01500
Br369      Br  0.17416875  0.98549094  0.55442013    -0.01400
Br370      Br  0.23913619  0.02487583  0.63278729    -0.01400
C371        C  0.18606320  0.06858117  0.86674011    -0.02500
C372        C  0.22117008  0.07752918  0.87583063     0.07100
C373        C  0.23195458  0.07687424  0.92875299    -0.02700
C374        C  0.20926768  0.07127027  0.97262547    -0.02700
C375        C  0.17178137  0.05652592  0.96514232     0.07300
C376        C  0.16136103  0.05678106  0.90983111    -0.02900
Br377      Br  0.11319159  0.03846402  0.88878975    -0.01400
Br378      Br  0.17082024  0.06898474  0.79362718    -0.01500
Br379      Br  0.23559082  0.09920627  0.03216784    -0.01400
Br380      Br  0.27980475  0.08777581  0.94171812    -0.01400
C381        C  0.14557273  0.10248840  0.50215025    -0.02500
C382        C  0.12569992  0.06468675  0.49983337     0.07100
C383        C  0.08860888  0.05154950  0.49929896    -0.02700
C384        C  0.07397705  0.07270674  0.51423885    -0.02700
C385        C  0.09396008  0.11211244  0.02734611     0.07300
C386        C  0.13063937  0.12278063  0.51817006    -0.02900
Br387      Br  0.15924325  0.15420360  0.57346264    -0.01400
Br388      Br  0.19001670  0.13298352  0.46737775    -0.01500
Br389      Br  0.03325410  0.04901213  0.07519108    -0.01400
Br390      Br  0.05430628  0.00797814  0.46816846    -0.01400
C391        C  0.10311910  0.37293602  0.94263470    -0.02500
C392        C  0.06611977  0.36286751  0.94449280     0.07100
C393        C  0.04462526  0.34016244  0.90226076    -0.02700
C394        C  0.06027024  0.33262681  0.85875845    -0.02700
C395        C  0.09559727  0.34136676  0.86046360     0.07300
C396        C  0.11644662  0.36022411  0.90331734    -0.02900
Br397      Br  0.16312778  0.36622466  0.91087441    -0.01400
Br398      Br  0.13584996  0.40519424  0.50389965    -0.01500
Br399      Br  0.03314435  0.30968324  0.79575039    -0.01400
Br400      Br  0.99418035  0.31055904  0.90481595    -0.01400
C401        C  0.08922931  0.32620386  0.58399860    -0.02500
C402        C  0.10278387  0.34744214  0.62834355     0.07100
C403        C  0.09581071  0.37497761  0.63507443    -0.02700
C404        C  0.07325120  0.37996143  0.59927915    -0.02700
C405        C  0.06279972  0.36222054  0.54912292     0.07300
C406        C  0.06876551  0.33227661  0.54574894    -0.02900
Br407      Br  0.04455678  0.29391776  0.49633650    -0.01400
Br408      Br  0.10007133  0.28885302  0.57506076    -0.01500
Br409      Br  0.04502433  0.39494497  0.63604097    -0.01400
Br410      Br  0.11467268  0.40382128  0.69748026    -0.01400
C411        C  0.06337294  0.44068159  0.52965146    -0.02500
C412        C  0.06903539  0.41926718  0.49302544     0.07100
C413        C  0.09682879  0.43912122  0.94736096    -0.02700
C414        C  0.12370088  0.47369585  0.95653442    -0.02700
C415        C  0.11959749  0.99857495  0.49728064     0.07300
C416        C  0.08918296  0.47662123  0.53739738    -0.02900
Br417      Br  0.08467030  0.98968158  0.60282567    -0.01400
Br418      Br  0.01610955  0.42911512  0.55076656    -0.01500
Br419      Br  0.16779848  0.99069741  0.92894277    -0.01400
Br420      Br  0.09483704  0.42748565  0.87150989    -0.01400
C421        C  0.38374352  0.25534414  0.85989814    -0.02500
C422        C  0.35248197  0.22299851  0.86753599     0.07100
C423        C  0.33200948  0.21848372  0.91348916    -0.02700
C424        C  0.34167917  0.24583082  0.95026961    -0.02700
C425        C  0.37432514  0.27931152  0.94456357     0.07300
C426        C  0.39258702  0.28373199  0.89448158    -0.02900
Br427      Br  0.41893725  0.32823943  0.85789638    -0.01400
Br428      Br  0.41481381  0.26229268  0.79969908    -0.01500
Br429      Br  0.30399468  0.23788294  0.99959635    -0.01400
Br430      Br  0.29087810  0.17331178  0.92848455    -0.01400
C431        C  0.37790211  0.22587153  0.59293276    -0.02500
C432        C  0.35732603  0.22539241  0.63655328     0.07100
C433        C  0.34874998  0.25241532  0.63898603    -0.02700
C434        C  0.35491016  0.27594913  0.59459654    -0.02700
C435        C  0.37591752  0.27725542  0.54893104     0.07300
C436        C  0.38635240  0.25038329  0.54930919    -0.02900
Br437      Br  0.41400666  0.24592393  0.49175549    -0.01400
Br438      Br  0.39884652  0.19572550  0.59474051    -0.01500
Br439      Br  0.32596802  0.29805334  0.59709066    -0.01400
Br440      Br  0.33275269  0.26065190  0.70695375    -0.01400
C441        C  0.45472688  0.36084871  0.96345502    -0.02500
C442        C  0.43104176  0.32827080  0.50188816     0.07100
C443        C  0.45173810  0.32164147  0.54124166    -0.02700
C444        C  0.98451657  0.33354250  0.53982672    -0.02700
C445        C  0.00752245  0.35938216  0.49970528     0.07300
C446        C  0.99192485  0.37057454  0.96154525    -0.02900
Br447      Br  0.01398307  0.40167061  0.90015163    -0.01400
Br448      Br  0.43871067  0.39212897  0.93319351    -0.01500
Br449      Br  0.99485546  0.30288722  0.58557083    -0.01400
Br450      Br  0.43979597  0.30946127  0.61817570    -0.01400
C451        C  0.34967230  0.33319908  0.94888038    -0.02500
C452        C  0.37196878  0.33135239  0.49843825     0.07100
C453        C  0.38475327  0.36001056  0.53508306    -0.02700
C454        C  0.37586450  0.38715594  0.53033730    -0.02700
C455        C  0.34741986  0.38360579  0.49827556     0.07300
C456        C  0.34152056  0.36094864  0.94356546    -0.02900
Br457      Br  0.33062031  0.36911679  0.86927382    -0.01400
Br458      Br  0.32373634  0.29709249  0.89672203    -0.01500
Br459      Br  0.41097986  0.43270451  0.55619938    -0.01400
Br460      Br  0.41499411  0.36514262  0.59469097    -0.01400
C461        C  0.39038116  0.80632491  0.98953816    -0.03200
C462        C  0.05206757  0.87780655  0.98413382    -0.03200
C463        C  0.14657458  0.53666727  0.00044092    -0.03200
C464        C  0.08284137  0.63809329  0.51206911    -0.03200
C465        C  0.41730869  0.56597099  0.00401666    -0.03200
C466        C  0.32684308  0.90570591  0.99637233    -0.03200
O467        O  0.19945901  0.86227165  0.29928624    -0.82500
C468        C  0.12998029  0.73937062  0.17749208     0.96900
O469        O  0.15563314  0.74780830  0.20827000    -0.71600
O470        O  0.20924254  0.81008971  0.18985441    -0.75200
Al471      Al  0.18167972  0.78673986  0.25240113     1.49000
C472        C  0.22090148  0.84123429  0.17236950     0.92100
O473        O  0.14882588  0.85273039  0.17240798    -0.81400
O474        O  0.09819943  0.79983940  0.29853186    -0.75000
Al475      Al  0.17235165  0.85304822  0.23671665     1.90100
O476        O  0.09816097  0.80598066  0.18755209    -0.74000
O477        O  0.10413166  0.74220373  0.29029452    -0.73900
O478        O  0.11066393  0.75313972  0.18070190    -0.79600
O479        O  0.15786900  0.75979150  0.31585516    -0.77800
O480        O  0.15373576  0.80597433  0.24308958    -1.13900
O481        O  0.21412095  0.82131043  0.29907699    -0.73100
C482        C  0.21714241  0.84900692  0.31781309     0.97600
C483        C  0.11722158  0.83390870  0.16061321     0.94000
Al484      Al  0.10708323  0.77792486  0.23964456     1.55600
O485        O  0.21038719  0.86059224  0.19203808    -0.77700
C486        C  0.12541879  0.73890099  0.32121988     0.98200
C487        C  0.11142125  0.83225352  0.30720462     0.93100
O488        O  0.13783645  0.85484788  0.28071573    -0.83000
O489        O  0.36055571  0.69214666  0.19651340    -0.82500
C490        C  0.24766949  0.59775366  0.32498393     0.96900
O491        O  0.26342678  0.63002161  0.31277664    -0.71600
O492        O  0.31790546  0.69107096  0.28767415    -0.75200
Al493      Al  0.28611425  0.65091250  0.24650364     1.49000
C494        C  0.34460451  0.69751675  0.31569775     0.92100
O495        O  0.36656756  0.62528388  0.29236292    -0.81400
O496        O  0.32477549  0.57805753  0.21150497    -0.75000
Al497      Al  0.35838036  0.65557096  0.24544542     1.90100
O498        O  0.31534997  0.58348002  0.31822055    -0.74000
O499        O  0.26599459  0.57713638  0.19047698    -0.73900
O500        O  0.25320291  0.57656301  0.29921908    -0.79600
O501        O  0.24864655  0.61498992  0.20624920    -0.77800
O502        O  0.31202592  0.62988263  0.24893443    -1.13900
O503        O  0.30559823  0.67467930  0.17885304    -0.73100
C504        C  0.33768469  0.69442764  0.16785467     0.97600
C505        C  0.34812564  0.59868508  0.32237267     0.94000
Al506      Al  0.29148607  0.58295601  0.25444433     1.55600
O507        O  0.36112216  0.68124468  0.30773261    -0.77700
C508        C  0.24562745  0.58909041  0.18078872     0.98200
C509        C  0.34869596  0.59960180  0.18022656     0.93100
O510        O  0.36085214  0.63229815  0.18393641    -0.83000
C511        C  0.30732507  0.87469407  0.09645841    -0.02500
C512        C  0.30318284  0.89305932  0.05013669     0.07100
C513        C  0.27264288  0.89738240  0.05217756    -0.02700
C514        C  0.24457625  0.87708213  0.08754508    -0.02700
C515        C  0.24774522  0.85619422  0.12872616     0.07300
C516        C  0.27911761  0.85499674  0.13313509    -0.02900
Br517      Br  0.28475787  0.82888841  0.19348833    -0.01400
Br518      Br  0.35201622  0.88807960  0.12821931    -0.01500
Br519      Br  0.20062991  0.87678432  0.07660520    -0.01400
Br520      Br  0.26631818  0.93398376  0.50988858    -0.01400
C521        C  0.26864982  0.90044354  0.35820266    -0.02500
C522        C  0.24144566  0.86571817  0.36285770     0.07100
C523        C  0.23779278  0.84628438  0.41027355    -0.02700
C524        C  0.26498966  0.85824851  0.44817487    -0.02700
C525        C  0.29402987  0.89413906  0.44552711     0.07300
C526        C  0.29216095  0.91583117  0.40134697    -0.02900
Br527      Br  0.31489672  0.96609306  0.39656996    -0.01400
Br528      Br  0.27513745  0.92611319  0.29009366    -0.01500
Br529      Br  0.26260482  0.82162067  0.49718520    -0.01400
Br530      Br  0.19458266  0.80304946  0.42285425    -0.01400
C531        C  0.36249408  0.55293257  0.44566470    -0.02500
C532        C  0.40041441  0.57095737  0.44999044     0.07100
C533        C  0.41961332  0.59230118  0.40377224    -0.02700
C534        C  0.40273649  0.60122787  0.36251528    -0.02700
C535        C  0.36568505  0.58599787  0.36221305     0.07300
C536        C  0.34583938  0.55875638  0.40069650    -0.02900
Br537      Br  0.29527772  0.52879885  0.39409966    -0.01400
Br538      Br  0.33073199  0.52434739  0.50445028    -0.01500
Br539      Br  0.43221728  0.63356463  0.30468444    -0.01400
Br540      Br  0.46712893  0.60453121  0.38636127    -0.01400
C541        C  0.35929223  0.59603975  0.08482604    -0.02500
C542        C  0.36230737  0.58681585  0.13762729     0.07100
C543        C  0.38441630  0.57305368  0.14977720    -0.02700
C544        C  0.40637996  0.57178179  0.10949351    -0.02700
C545        C  0.40196615  0.57822715  0.05327272     0.07300
C546        C  0.38186053  0.59649753  0.04479016    -0.02900
Br547      Br  0.38250449  0.62633471  0.48135169    -0.01400
Br548      Br  0.32243585  0.60705635  0.06777306    -0.01500
Br549      Br  0.44994353  0.57806727  0.13927210    -0.01400
Br550      Br  0.38532226  0.55690598  0.22294069    -0.01400
C551        C  0.38746422  0.00243136  0.05128349    -0.02500
C552        C  0.40057458  0.52423877  0.00230595     0.07100
C553        C  0.39455800  0.00433123  0.45017370    -0.02700
C554        C  0.37500780  0.96675509  0.45056597    -0.02700
C555        C  0.35363830  0.94748344  0.00037645     0.07300
C556        C  0.35881005  0.96816165  0.04805181    -0.02900
Br557      Br  0.33361234  0.95628806  0.11632044    -0.01400
Br558      Br  0.41658414  0.50095643  0.10294073    -0.01500
Br559      Br  0.38104695  0.94410546  0.38914889    -0.01400
Br560      Br  0.41625626  0.52046764  0.39174516    -0.01400
C561        C  0.10892900  0.67802654  0.14940517    -0.02500
C562        C  0.12350118  0.71376410  0.13602144     0.07100
C563        C  0.13559992  0.72563845  0.08377951    -0.02700
C564        C  0.12663437  0.70146325  0.04244608    -0.02700
C565        C  0.10220250  0.66424331  0.05218815     0.07300
C566        C  0.09899870  0.65329842  0.10824189    -0.02900
Br567      Br  0.07667866  0.60538532  0.13338158    -0.01400
Br568      Br  0.09940377  0.66298741  0.22450765    -0.01500
Br569      Br  0.15736137  0.72124403  0.98053845    -0.01400
Br570      Br  0.16913135  0.77519312  0.07174039    -0.01400
C571        C  0.08596113  0.70720917  0.40061334    -0.02500
C572        C  0.11174315  0.71036816  0.36440434     0.07100
C573        C  0.12432296  0.68641662  0.37013912    -0.02700
C574        C  0.10988266  0.65846440  0.40972087    -0.02700
C575        C  0.08953428  0.65950081  0.45489662     0.07300
C576        C  0.07776411  0.68518036  0.44752694    -0.02900
Br577      Br  0.05716976  0.69900910  0.50326686    -0.01400
Br578      Br  0.06538760  0.73741952  0.39004200    -0.00300
Br579      Br  0.11823385  0.62039736  0.39306469    -0.01400
Br580      Br  0.16435984  0.69388841  0.32733069    -0.01400
C581        C  0.01948147  0.62563828  0.04203493    -0.02500
C582        C  0.04044588  0.61827464  0.51891451     0.07100
C583        C  0.01864276  0.59195991  0.48194265    -0.02700
C584        C  0.48016688  0.56724064  0.49305752    -0.02700
C585        C  0.45912338  0.58354446  0.00886004     0.07300
C586        C  0.48022918  0.61690957  0.03255795    -0.02900
Br587      Br  0.46542728  0.65152221  0.04003027    -0.01400
Br588      Br  0.03235367  0.65304782  0.10657332    -0.01500
Br589      Br  0.46576012  0.51793342  0.49855425    -0.01400
Br590      Br  0.03455322  0.58157603  0.41677219    -0.01400
C591        C  0.20557329  0.59275749  0.11218148    -0.02500
C592        C  0.21751276  0.57242052  0.14010563     0.07100
C593        C  0.20013716  0.53578683  0.13121675    -0.02700
C594        C  0.17453850  0.52138742  0.08968332    -0.02700
C595        C  0.16486195  0.54379975  0.05871994     0.07300
C596        C  0.17453295  0.57587644  0.08389584    -0.02900
Br597      Br  0.13896327  0.58021839  0.12167125    -0.01400
Br598      Br  0.22716923  0.64306546  0.11709691    -0.01500
Br599      Br  0.15865501  0.47291132  0.07512066    -0.01400
Br600      Br  0.21307034  0.50549071  0.17226320    -0.01400
C601        C  0.18691445  0.57158490  0.36082300    -0.02500
C602        C  0.22249256  0.58417187  0.37020812     0.07100
C603        C  0.23367912  0.57955565  0.42100699    -0.02700
C604        C  0.20920845  0.56054762  0.46255594    -0.02700
C605        C  0.17246939  0.55018681  0.45653797     0.07300
C606        C  0.16199860  0.55402633  0.40250952    -0.02900
Br607      Br  0.11398455  0.53212941  0.38003778    -0.01400
Br608      Br  0.17282923  0.57976229  0.29000963    -0.01500
Br609      Br  0.22733577  0.53991140  0.51428711    -0.01400
Br610      Br  0.28355079  0.59958804  0.43292006    -0.01400
C611        C  0.14958896  0.59928660  0.99501932    -0.02500
C612        C  0.12835928  0.56147544  0.99452289     0.07100
C613        C  0.09136401  0.54952947  0.99507456    -0.02700
C614        C  0.07778595  0.57170508  0.00998729    -0.02700
C615        C  0.09806443  0.61077220  0.51494282     0.07300
C616        C  0.13570381  0.62126021  0.00927876    -0.02900
Br617      Br  0.16972910  0.66300488  0.04475834    -0.01400
Br618      Br  0.19907516  0.62521010  0.97466800    -0.01500
Br619      Br  0.03580926  0.54799098  0.56398668    -0.01400
Br620      Br  0.05591251  0.50646331  0.96367280    -0.01400
C621        C  0.10508141  0.87675755  0.43236407    -0.02500
C622        C  0.06810530  0.86632861  0.43578472     0.07100
C623        C  0.04621005  0.84334957  0.39395105    -0.02700
C624        C  0.06135904  0.83577045  0.34965432    -0.02700
C625        C  0.09669098  0.84445740  0.34996899     0.07300
C626        C  0.11820005  0.86451944  0.39173489    -0.02900
Br627      Br  0.16609953  0.87394924  0.39559851    -0.01400
Br628      Br  0.13737824  0.90670069  0.98782404    -0.01500
Br629      Br  0.03354342  0.81310387  0.28717120    -0.01400
Br630      Br  0.99603498  0.81190537  0.39951865    -0.01400
C631        C  0.08876422  0.82433804  0.07025289    -0.02500
C632        C  0.10192651  0.84497585  0.11547967     0.07100
C633        C  0.09611536  0.87341176  0.12106764    -0.02700
C634        C  0.07343532  0.87826919  0.08564481    -0.02700
C635        C  0.06461632  0.86225477  0.03424823     0.07300
C636        C  0.07097759  0.83260433  0.02953885    -0.02900
Br637      Br  0.04972167  0.79672188  0.97534993    -0.01400
Br638      Br  0.09587244  0.78449145  0.06401567    -0.01500
Br639      Br  0.04048028  0.88560454  0.12534935    -0.01400
Br640      Br  0.11516025  0.90312708  0.18225312    -0.01400
C641        C  0.06394697  0.93966199  0.02512397    -0.02500
C642        C  0.07069841  0.92101989  0.98487997     0.07100
C643        C  0.09842737  0.94385167  0.44385909    -0.02700
C644        C  0.12416471  0.97900151  0.45498100    -0.02700
C645        C  0.12003442  0.49503017  0.99600617     0.07300
C646        C  0.08884834  0.97505132  0.03809768    -0.02900
Br647      Br  0.08478058  0.49587376  0.09641250    -0.01400
Br648      Br  0.01601197  0.92643359  0.04453121    -0.01500
Br649      Br  0.16483064  0.48283894  0.42598814    -0.01400
Br650      Br  0.09743380  0.93369420  0.36761378    -0.01400
C651        C  0.39115511  0.75390145  0.35481744    -0.02500
C652        C  0.35694097  0.72524414  0.35702489     0.07100
C653        C  0.33318259  0.72544559  0.39423040    -0.02700
C654        C  0.34282414  0.75418301  0.42777796    -0.02700
C655        C  0.37841908  0.78290357  0.43021883     0.07300
C656        C  0.40094454  0.78356181  0.38702479    -0.02900
Br657      Br  0.43628061  0.82564936  0.35118159    -0.01400
Br658      Br  0.42456632  0.75346097  0.30428311    -0.01500
Br659      Br  0.30403072  0.75501856  0.46241553    -0.01400
Br660      Br  0.28746884  0.68434961  0.40300545    -0.01400
C661        C  0.37287713  0.72367337  0.08275742    -0.02500
C662        C  0.34866949  0.72112696  0.12184187     0.07100
C663        C  0.33575432  0.74486459  0.11807776    -0.02700
C664        C  0.34772750  0.77201574  0.07707107    -0.02700
C665        C  0.37337638  0.77600387  0.03661466     0.07300
C666        C  0.38393383  0.74918770  0.03978144    -0.02900
Br667      Br  0.41849347  0.74881627  0.99143372    -0.01400
Br668      Br  0.39380688  0.69380246  0.09079145    -0.01500
Br669      Br  0.32516836  0.80027532  0.08013293    -0.01400
Br670      Br  0.30286451  0.74153267  0.17318731    -0.01400
C671        C  0.45574373  0.86005889  0.45703475    -0.02500
C672        C  0.43301883  0.82903587  0.00004205     0.07100
C673        C  0.45097221  0.82456689  0.04704399    -0.02700
C674        C  0.98741010  0.83345244  0.02518883    -0.02700
C675        C  0.00976024  0.86031873  0.98622024     0.07300
C676        C  0.99352049  0.87114490  0.45723221    -0.02900
Br677      Br  0.01458667  0.90096623  0.39410623    -0.01400
Br678      Br  0.44076754  0.89020245  0.41937882    -0.01500
Br679      Br  0.99626894  0.79954266  0.06453562    -0.01400
Br680      Br  0.42749698  0.80422693  0.11763961    -0.01400
C681        C  0.35596938  0.83919810  0.43164298    -0.02500
C682        C  0.37531029  0.83384383  0.98503043     0.07100
C683        C  0.38587654  0.86164198  0.02282548    -0.02700
C684        C  0.37693598  0.88860041  0.01654076    -0.02700
C685        C  0.34833540  0.88462654  0.98479864     0.07300
C686        C  0.33971199  0.86096412  0.43344263    -0.02900
Br687      Br  0.31769250  0.86285996  0.36519347    -0.01400
Br688      Br  0.35749569  0.82279753  0.35975780    -0.01500
Br689      Br  0.41326364  0.93460686  0.03715177    -0.01400
Br690      Br  0.41458483  0.86748134  0.08491492    -0.01400
C691        C  0.39008434  0.80797923  0.48172793    -0.03200
C692        C  0.05474257  0.87767309  0.48714802    -0.03200
C693        C  0.14483787  0.53733951  0.50492695    -0.03200
C694        C  0.08347723  0.63681678  0.00521350    -0.03200
C695        C  0.41761965  0.56557086  0.50351750    -0.03200
C696        C  0.32411829  0.90555451  0.49025202    -0.03200
O697        O  0.20243855  0.86195182  0.80594258    -0.82500
C698        C  0.13323662  0.74294801  0.67814351     0.96900
O699        O  0.15849605  0.75028660  0.70905297    -0.71600
O700        O  0.21182562  0.81201112  0.68953231    -0.75200
Al701      Al  0.18529769  0.78864805  0.75261109     1.49000
C702        C  0.22432410  0.84363650  0.67417149     0.92100
O703        O  0.15425583  0.85682836  0.67745790    -0.81400
O704        O  0.10193533  0.80197753  0.80140425    -0.75000
Al705      Al  0.17690955  0.85544976  0.74190810     1.90100
O706        O  0.10307527  0.81039195  0.69106832    -0.74000
O707        O  0.10810499  0.74458751  0.78897217    -0.73900
O708        O  0.11483620  0.75767023  0.68105299    -0.79600
O709        O  0.16151234  0.76127655  0.81565868    -0.77800
O710        O  0.15776350  0.80848887  0.74546215    -1.13900
O711        O  0.21898988  0.82270334  0.79858058    -0.73100
C712        C  0.22104323  0.84892188  0.82122278     0.97600
C713        C  0.12270814  0.83836775  0.66478269     0.94000
Al714      Al  0.11120050  0.78116989  0.74117593     1.55600
O715        O  0.21559370  0.86347058  0.69728721    -0.77700
C716        C  0.12895155  0.74022833  0.81931090     0.98200
C717        C  0.11492166  0.83436184  0.81022716     0.93100
O718        O  0.14200775  0.85699869  0.78516835    -0.83000
O719        O  0.36410553  0.69787469  0.69286164    -0.82500
C720        C  0.25086134  0.60160477  0.82149443     0.96900
O721        O  0.26534811  0.63367594  0.80834110    -0.71600
O722        O  0.31989259  0.69525085  0.78614306    -0.75200
Al723      Al  0.28920175  0.65566385  0.74312414     1.49000
C724        C  0.34681704  0.70203799  0.81381854     0.92100
O725        O  0.37233195  0.63246083  0.78946117    -0.81400
O726        O  0.33027947  0.58455864  0.70878628    -0.75000
Al727      Al  0.36268479  0.66191553  0.74226199     1.90100
O728        O  0.32129676  0.59087244  0.81562194    -0.74000
O729        O  0.26913595  0.58062490  0.68878344    -0.73900
O730        O  0.25820478  0.58119538  0.79727455    -0.79600
O731        O  0.25291089  0.61993515  0.70115188    -0.77800
O732        O  0.31604196  0.63540454  0.74546621    -1.13900
O733        O  0.30900486  0.68080609  0.67678515    -0.73100
C734        C  0.34097814  0.70032712  0.66521057     0.97600
C735        C  0.35421415  0.60635574  0.82005097     0.94000
Al736      Al  0.29647430  0.58858489  0.75200413     1.55600
O737        O  0.36447212  0.68718410  0.80421654    -0.77700
C738        C  0.24903064  0.59289500  0.67806321     0.98200
C739        C  0.35492717  0.60632813  0.67869487     0.93100
O740        O  0.36635712  0.63893588  0.68156474    -0.83000
C741        C  0.30777012  0.87633923  0.59084624    -0.02500
C742        C  0.30178043  0.89359148  0.54505181     0.07100
C743        C  0.27117038  0.89768511  0.54927052    -0.02700
C744        C  0.24487222  0.87853685  0.58786043    -0.02700
C745        C  0.24959188  0.85825995  0.62840606     0.07300
C746        C  0.28073714  0.85650864  0.62904225    -0.02900
Br747      Br  0.28797101  0.82940894  0.68590117    -0.01400
Br748      Br  0.35348410  0.89364081  0.62139609    -0.01500
Br749      Br  0.20089033  0.87843680  0.58153920    -0.01400
Br750      Br  0.26991039  0.93514052  0.01406624    -0.01400
C751        C  0.27080263  0.90015138  0.86425232    -0.02500
C752        C  0.24571446  0.86458354  0.86630789     0.07100
C753        C  0.24456790  0.84363780  0.91062522    -0.02700
C754        C  0.27020063  0.85688061  0.95102580    -0.02700
C755        C  0.29730770  0.89363642  0.95058980     0.07300
C756        C  0.29468356  0.91527736  0.90707864    -0.02900
Br757      Br  0.31928393  0.96528192  0.90076537    -0.01400
Br758      Br  0.27451637  0.92728009  0.79846208    -0.01500
Br759      Br  0.26818013  0.82120509  0.00216587    -0.01400
Br760      Br  0.20769601  0.79565309  0.91452936    -0.01400
C761        C  0.36558100  0.55735164  0.94189162    -0.02500
C762        C  0.40317016  0.57556952  0.95056512     0.07100
C763        C  0.42436424  0.60127774  0.90936033    -0.02700
C764        C  0.40854523  0.61097013  0.86684928    -0.02700
C765        C  0.37134590  0.59380522  0.86138198     0.07300
C766        C  0.35069670  0.56473142  0.89630734    -0.02900
Br767      Br  0.30094989  0.53318432  0.88335853    -0.01400
Br768      Br  0.33139620  0.52494692  0.99519071    -0.01500
Br769      Br  0.43954602  0.64821607  0.81593752    -0.01400
Br770      Br  0.47510435  0.62457274  0.90539259    -0.01400
C771        C  0.36124630  0.59704171  0.58424542    -0.02500
C772        C  0.36935576  0.59370391  0.63722832     0.07100
C773        C  0.39612345  0.58589634  0.64869127    -0.02700
C774        C  0.41574788  0.58262734  0.60647627    -0.02700
C775        C  0.40529771  0.58180387  0.55115423     0.07300
C776        C  0.38240751  0.59698290  0.54244512    -0.02900
Br777      Br  0.38893437  0.63126827  0.98786535    -0.01400
Br778      Br  0.31946134  0.60038841  0.56940750    -0.01500
Br779      Br  0.46251167  0.59327848  0.62768839    -0.01400
Br780      Br  0.40519992  0.57866308  0.72284241    -0.01400
C781        C  0.38731529  0.00096718  0.54576456    -0.02500
C782        C  0.40054792  0.52356388  0.50841061     0.07100
C783        C  0.39598532  0.00493897  0.95607092    -0.02700
C784        C  0.37841149  0.96743935  0.95807384    -0.02700
C785        C  0.35114405  0.94714450  0.49387802     0.07300
C786        C  0.35750531  0.96771276  0.54199340    -0.02900
Br787      Br  0.33095085  0.95864992  0.60840288    -0.01400
Br788      Br  0.41519102  0.51081186  0.61845437    -0.01500
Br789      Br  0.39002199  0.94619438  0.90082940    -0.01400
Br790      Br  0.41725645  0.52799127  0.88446863    -0.01400
C791        C  0.11108182  0.68150809  0.65307490    -0.02500
C792        C  0.12581314  0.71690509  0.63783184     0.07100
C793        C  0.13795161  0.72789657  0.58545537    -0.02700
C794        C  0.12798065  0.70304284  0.54514100    -0.02700
C795        C  0.10324081  0.66614370  0.55707147     0.07300
C796        C  0.10144707  0.65617869  0.61329556    -0.02900
Br797      Br  0.08247029  0.60905472  0.64112811    -0.01400
Br798      Br  0.09901253  0.66744148  0.72820952    -0.01500
Br799      Br  0.15814133  0.72128541  0.48196429    -0.01400
Br800      Br  0.17267448  0.77688246  0.57211855    -0.01400
C801        C  0.08596006  0.70414131  0.89206071    -0.02500
C802        C  0.11441724  0.71020455  0.85956891     0.07100
C803        C  0.12819171  0.68723777  0.86581644    -0.02700
C804        C  0.11358022  0.65882097  0.90468855    -0.02700
C805        C  0.09166960  0.65877246  0.94854646     0.07300
C806        C  0.07860779  0.68324674  0.93959858    -0.02900
Br807      Br  0.05927747  0.69922913  0.99393177    -0.01400
Br808      Br  0.05916590  0.72790787  0.87582427    -0.00300
Br809      Br  0.12377283  0.62181938  0.88877872    -0.01400
Br810      Br  0.16795828  0.69507991  0.82175654    -0.01400
C811        C  0.01979732  0.62669320  0.55502114    -0.02500
C812        C  0.04091076  0.61697294  0.00843450     0.07100
C813        C  0.02013203  0.59115285  0.96994694    -0.02700
C814        C  0.47990276  0.56914886  0.98857362    -0.02700
C815        C  0.45996411  0.58442111  0.50298983     0.07300
C816        C  0.48175235  0.62151965  0.51109321    -0.02900
Br817      Br  0.46346921  0.65354860  0.50736965    -0.01400
Br818      Br  0.03360343  0.65276383  0.62050970    -0.01500
Br819      Br  0.46661171  0.52035790  0.98060686    -0.01400
Br820      Br  0.03867488  0.58266535  0.90550503    -0.01400
C821        C  0.21077971  0.59599020  0.60556778    -0.02500
C822        C  0.22001431  0.57546869  0.63886645     0.07100
C823        C  0.19859059  0.53841511  0.63736387    -0.02700
C824        C  0.17220112  0.52318534  0.59687481    -0.02700
C825        C  0.16449740  0.54569940  0.56208827     0.07300
C826        C  0.17798870  0.57976030  0.58194049    -0.02900
Br827      Br  0.14604180  0.58543747  0.62712370    -0.01400
Br828      Br  0.23816664  0.64640079  0.59930694    -0.01500
Br829      Br  0.15336969  0.47360245  0.58835960    -0.01400
Br830      Br  0.20576518  0.50874562  0.68936226    -0.01400
C831        C  0.18987757  0.57448229  0.85749369    -0.02500
C832        C  0.22549207  0.58733444  0.86668502     0.07100
C833        C  0.23663951  0.58205673  0.91705040    -0.02700
C834        C  0.21214112  0.56207796  0.95832674    -0.02700
C835        C  0.17498399  0.55046759  0.95230120     0.07300
C836        C  0.16482330  0.55506396  0.89836593    -0.02900
Br837      Br  0.11719571  0.53155244  0.87425548    -0.01400
Br838      Br  0.17594298  0.58513555  0.78822827    -0.01500
Br839      Br  0.23233736  0.54452558  0.01126725    -0.01400
Br840      Br  0.28679756  0.60377768  0.92892229    -0.01400
C841        C  0.14795401  0.60003925  0.49717585    -0.02500
C842        C  0.12666551  0.56221625  0.49904781     0.07100
C843        C  0.08980586  0.55053498  0.50220461    -0.02700
C844        C  0.07699803  0.57306179  0.51823915    -0.02700
C845        C  0.09878049  0.60949423  0.00875367     0.07300
C846        C  0.13489162  0.62234279  0.51288512    -0.02900
Br847      Br  0.17014137  0.66335991  0.54863776    -0.01400
Br848      Br  0.19594355  0.62578827  0.46980317    -0.01500
Br849      Br  0.03427574  0.54561317  0.05053260    -0.01400
Br850      Br  0.05332144  0.50812560  0.47093801    -0.01400
C851        C  0.10451058  0.87847816  0.93275989    -0.02500
C852        C  0.06747777  0.86836381  0.93287972     0.07100
C853        C  0.04742688  0.84720925  0.88820519    -0.02700
C854        C  0.06409894  0.83939953  0.84618696    -0.02700
C855        C  0.09890654  0.84663560  0.85089080     0.07300
C856        C  0.11895706  0.86626948  0.89400713    -0.02900
Br857      Br  0.16650163  0.87474590  0.90217036    -0.01400
Br858      Br  0.14000360  0.90649619  0.48423840    -0.01500
Br859      Br  0.03930396  0.81852243  0.78058248    -0.01400
Br860      Br  0.99695923  0.81901566  0.88618119    -0.01400
C861        C  0.09399257  0.82752302  0.57501291    -0.02500
C862        C  0.10799902  0.84932332  0.61884772     0.07100
C863        C  0.10238130  0.87794200  0.62322236    -0.02700
C864        C  0.07939494  0.88222903  0.58758475    -0.02700
C865        C  0.06928296  0.86448717  0.53750309     0.07300
C866        C  0.07533292  0.83461544  0.53450916    -0.02900
Br867      Br  0.05168547  0.79650906  0.48456275    -0.01400
Br868      Br  0.10015901  0.78695780  0.57104464    -0.01500
Br869      Br  0.04845630  0.89305013  0.62617790    -0.01400
Br870      Br  0.12189406  0.90837076  0.68364622    -0.01400
C871        C  0.06621365  0.94056027  0.52210980    -0.02500
C872        C  0.07291791  0.92089212  0.48387204     0.07100
C873        C  0.09672261  0.94491968  0.94635003    -0.02700
C874        C  0.12250362  0.97943052  0.95990172    -0.02700
C875        C  0.11833874  0.49577641  0.50098807     0.07300
C876        C  0.09114974  0.97609879  0.53332525    -0.02900
Br877      Br  0.08366431  0.49764034  0.60123851    -0.01400
Br878      Br  0.01842063  0.92768403  0.54214892    -0.01500
Br879      Br  0.16772985  0.48296779  0.92346931    -0.01400
Br880      Br  0.09703983  0.93692757  0.86943164    -0.01400
C881        C  0.39220940  0.75733351  0.85679574    -0.02500
C882        C  0.35817580  0.72830855  0.85724225     0.07100
C883        C  0.33402301  0.72641613  0.89575904    -0.02700
C884        C  0.34360050  0.75281662  0.93390270    -0.02700
C885        C  0.37907237  0.78213377  0.93719889     0.07300
C886        C  0.40150374  0.78530948  0.89234910    -0.02900
Br887      Br  0.43382534  0.82939093  0.85788083    -0.01400
Br888      Br  0.42530573  0.76092424  0.80191182    -0.01500
Br889      Br  0.30425581  0.75141264  0.97124581    -0.01400
Br890      Br  0.28704476  0.68664544  0.89756400    -0.01400
C891        C  0.37202271  0.72585219  0.57652457    -0.02500
C892        C  0.35148121  0.72649743  0.61882689     0.07100
C893        C  0.34093313  0.75203219  0.61688002    -0.02700
C894        C  0.34977168  0.77633811  0.57225961    -0.02700
C895        C  0.37401445  0.77881372  0.53045254     0.07300
C896        C  0.38395027  0.75155515  0.53402328    -0.02900
Br897      Br  0.41749007  0.74924194  0.48571790    -0.01400
Br898      Br  0.38490512  0.68953013  0.57779513    -0.01500
Br899      Br  0.32378177  0.80144474  0.57205669    -0.01400
Br900      Br  0.31620222  0.75516126  0.67906318    -0.01400
C901        C  0.45637812  0.85937814  0.96749916    -0.02500
C902        C  0.43244761  0.83058821  0.49066087     0.07100
C903        C  0.45063946  0.82434570  0.53483886    -0.02700
C904        C  0.99116835  0.83448417  0.53378444    -0.02700
C905        C  0.01264428  0.85985676  0.49208427     0.07300
C906        C  0.99120269  0.87323774  0.95276604    -0.02900
Br907      Br  0.01450135  0.90730106  0.89484654    -0.01400
Br908      Br  0.44208197  0.89108309  0.93292931    -0.01500
Br909      Br  0.00287548  0.80436075  0.57852816    -0.01400
Br910      Br  0.43237096  0.81023097  0.60913846    -0.01400
C911        C  0.35633438  0.83802663  0.93918532    -0.02500
C912        C  0.37488732  0.83527576  0.47728085     0.07100
C913        C  0.38463303  0.86268077  0.51505930    -0.02700
C914        C  0.37482971  0.88894767  0.50871962    -0.02700
C915        C  0.34527156  0.88398636  0.47821103     0.07300
C916        C  0.34343855  0.86265224  0.93913030    -0.02900
Br917      Br  0.32795180  0.87087792  0.86783969    -0.01400
Br918      Br  0.34986468  0.81562676  0.86961230    -0.01500
Br919      Br  0.41254443  0.93525763  0.52369090    -0.01400
Br920      Br  0.41297309  0.86862759  0.57737610    -0.01400
C921        C  0.89014366  0.30539841  0.99725079    -0.03200
C922        C  0.55333297  0.37859898  0.98901045    -0.03200
C923        C  0.64495310  0.04167164  0.00958231    -0.03200
C924        C  0.58172154  0.13824841  0.50941543    -0.03200
C925        C  0.91608689  0.06604821  0.01234544    -0.03200
C926        C  0.82653968  0.40489405  0.99539673    -0.03200
O927        O  0.70192102  0.36489547  0.30607675    -0.82500
C928        C  0.63110363  0.24502124  0.17955151     0.96900
O929        O  0.65669673  0.25192040  0.20987565    -0.71600
O930        O  0.71034096  0.31352186  0.19155518    -0.75200
Al931      Al  0.68399026  0.29029470  0.25456440     1.49000
C932        C  0.72285227  0.34496561  0.17545435     0.92100
O933        O  0.65183342  0.35701627  0.17809628    -0.81400
O934        O  0.60180639  0.30322622  0.30580598    -0.75000
Al935      Al  0.67530860  0.35702517  0.24267843     1.90100
O936        O  0.60061398  0.31179181  0.19662878    -0.74000
O937        O  0.60716118  0.24574570  0.29223312    -0.73900
O938        O  0.61271827  0.25955791  0.18443836    -0.79600
O939        O  0.66078394  0.26283070  0.31802700    -0.77800
O940        O  0.65646322  0.31007826  0.24783554    -1.13900
O941        O  0.71759222  0.32473021  0.30090183    -0.73100
C942        C  0.72039857  0.35180258  0.32201722     0.97600
C943        C  0.61979529  0.33877565  0.16799568     0.94000
Al944      Al  0.60986726  0.28261866  0.24517986     1.55600
O945        O  0.71380715  0.36492072  0.19743162    -0.77700
C946        C  0.62829667  0.24173542  0.32240491     0.98200
C947        C  0.61400340  0.33557691  0.31332945     0.93100
O948        O  0.64029931  0.35850908  0.28675852    -0.83000
O949        O  0.86639602  0.18685189  0.19748892    -0.82500
C950        C  0.75182403  0.10078000  0.33483693     0.96900
O951        O  0.75408598  0.12485476  0.30262379    -0.71600
O952        O  0.81083618  0.18636709  0.30683045    -0.75200
Al953      Al  0.78831069  0.15482389  0.24988682     1.49000
C954        C  0.84170838  0.20079146  0.32461536     0.92100
O955        O  0.86293162  0.13482736  0.32351079    -0.81400
O956        O  0.81299318  0.08304142  0.19774969    -0.75000
Al957      Al  0.86060929  0.15792461  0.25976280     1.90100
O958        O  0.82636428  0.08151704  0.30201850    -0.74000
O959        O  0.75075643  0.07632034  0.22427314    -0.73900
O960        O  0.77012854  0.08608007  0.32799614    -0.79600
O961        O  0.76175697  0.12690807  0.19069262    -0.77800
O962        O  0.81390064  0.13346725  0.25692006    -1.13900
O963        O  0.81756646  0.18878918  0.19758779    -0.73100
C964        C  0.84799240  0.19961284  0.17931679     0.97600
C965        C  0.85148753  0.10253523  0.32950317     0.94000
Al966      Al  0.79209213  0.08631788  0.26249467     1.55600
O967        O  0.86321487  0.19251110  0.30644498    -0.77700
C968        C  0.74325459  0.09389897  0.19162626     0.98200
C969        C  0.84580975  0.09890571  0.18878857     0.93100
O970        O  0.86656850  0.12633964  0.21377502    -0.83000
C971        C  0.80757917  0.37659714  0.09627055    -0.02500
C972        C  0.80268132  0.39347966  0.04884959     0.07100
C973        C  0.77159944  0.39705890  0.04986813    -0.02700
C974        C  0.74468930  0.37865962  0.08818789    -0.02700
C975        C  0.74880272  0.35910660  0.13050806     0.07300
C976        C  0.77972731  0.35703053  0.13327270    -0.02900
Br977      Br  0.78530547  0.32929632  0.19099676    -0.01400
Br978      Br  0.85240397  0.39337789  0.12979513    -0.01500
Br979      Br  0.70044151  0.37800115  0.07949249    -0.01400
Br980      Br  0.76709039  0.43600703  0.50865619    -0.01400
C981        C  0.77168219  0.40349505  0.36282128    -0.02500
C982        C  0.74565580  0.36817309  0.36642473     0.07100
C983        C  0.74394111  0.34797572  0.41203868    -0.02700
C984        C  0.77080021  0.36089261  0.45054715    -0.02700
C985        C  0.79833594  0.39748381  0.44938725     0.07300
C986        C  0.79624087  0.41879920  0.40497651    -0.02900
Br987      Br  0.82369317  0.46852137  0.39629811    -0.01400
Br988      Br  0.77459459  0.43032394  0.29714745    -0.01500
Br989      Br  0.76885329  0.32519062  0.50147826    -0.01400
Br990      Br  0.70281020  0.30264450  0.42290611    -0.01400
C991        C  0.86292943  0.05255391  0.44660065    -0.02500
C992        C  0.90075974  0.07082624  0.45258655     0.07100
C993        C  0.92088162  0.09421101  0.40858757    -0.02700
C994        C  0.90472614  0.10552000  0.36999618    -0.02700
C995        C  0.86802312  0.08922315  0.36790413     0.07300
C996        C  0.84727825  0.06050569  0.40277727    -0.02900
Br997      Br  0.79654864  0.03479592  0.39558924    -0.01400
Br998      Br  0.83001045  0.02106759  0.50179545    -0.01500
Br999      Br  0.93357312  0.14265769  0.31771785    -0.01400
Br1000     Br  0.96739935  0.10480325  0.38776337    -0.01400
C1001       C  0.85625986  0.09407326  0.09322257    -0.02500
C1002       C  0.86068443  0.08684177  0.14652322     0.07100
C1003       C  0.88535893  0.07618878  0.15909951    -0.02700
C1004       C  0.90582415  0.07274878  0.11808983    -0.02700
C1005       C  0.89996271  0.07745438  0.06172199     0.07300
C1006       C  0.87904975  0.09487014  0.05311781    -0.02900
Br1007     Br  0.87995173  0.12371691  0.48809285    -0.01400
Br1008     Br  0.82009519  0.10591063  0.07606674    -0.01500
Br1009     Br  0.94835640  0.07475934  0.14522357    -0.01400
Br1010     Br  0.89055413  0.06593775  0.23391336    -0.01400
C1011       C  0.88892497  0.50158067  0.04679758    -0.02500
C1012       C  0.89970717  0.02429832  0.00806313     0.07100
C1013       C  0.89842644  0.50847787  0.45876291    -0.02700
C1014       C  0.88079427  0.47109369  0.46040394    -0.02700
C1015       C  0.85355510  0.44653217  0.99755036     0.07300
C1016       C  0.85903278  0.46817641  0.04389840    -0.02900
Br1017     Br  0.83159789  0.45963590  0.10902993    -0.01400
Br1018     Br  0.90811104  0.99687085  0.11123413    -0.01500
Br1019     Br  0.89621059  0.45058359  0.40705804    -0.01400
Br1020     Br  0.91341792  0.02090474  0.38804943    -0.01400
C1021       C  0.60396232  0.18322208  0.15358397    -0.02500
C1022       C  0.62213714  0.21880432  0.13868347     0.07100
C1023       C  0.63395922  0.22934790  0.08587749    -0.02700
C1024       C  0.62486377  0.20410183  0.04638156    -0.02700
C1025       C  0.59868380  0.16766714  0.05746470     0.07300
C1026       C  0.59340548  0.15765547  0.11392469    -0.02900
Br1027     Br  0.56763999  0.11039044  0.14151932    -0.01400
Br1028     Br  0.58856465  0.16989959  0.22797601    -0.01500
Br1029     Br  0.65892143  0.21994590  0.98777002    -0.01400
Br1030     Br  0.66545376  0.27871289  0.06923983    -0.01400
C1031       C  0.58829231  0.20951331  0.39994677    -0.02500
C1032       C  0.61399662  0.21244213  0.36404100     0.07100
C1033       C  0.62507922  0.18724599  0.36771975    -0.02700
C1034       C  0.61106974  0.15961614  0.40817498    -0.02700
C1035       C  0.59003115  0.16038988  0.45271933     0.07300
C1036       C  0.57868450  0.18639450  0.44543658    -0.02900
Br1037     Br  0.55690666  0.19960819  0.50008710    -0.01400
Br1038     Br  0.56896011  0.24093961  0.39031862    -0.00300
Br1039     Br  0.62257038  0.12306354  0.39604388    -0.01400
Br1040     Br  0.66080837  0.19156296  0.31746476    -0.01400
C1041       C  0.51589565  0.12960783  0.04646097    -0.02500
C1042       C  0.53891829  0.11808813  0.51305694     0.07100
C1043       C  0.51825649  0.09167394  0.47535611    -0.02700
C1044       C  0.97991016  0.06723221  0.49246446    -0.02700
C1045       C  0.95797983  0.08429826  0.01804639     0.07300
C1046       C  0.97885305  0.11798815  0.04110803    -0.02900
Br1047     Br  0.96277810  0.15161476  0.04945073    -0.01400
Br1048     Br  0.52824543  0.15993621  0.10798747    -0.01500
Br1049     Br  0.96579494  0.01799435  0.49067807    -0.01400
Br1050     Br  0.53678705  0.08360073  0.41059532    -0.01400
C1051       C  0.69295313  0.09162936  0.13863658    -0.02500
C1052       C  0.71242949  0.07544307  0.15508590     0.07100
C1053       C  0.70149648  0.04126686  0.13634254    -0.02700
C1054       C  0.67874817  0.02860171  0.09112657    -0.02700
C1055       C  0.66192367  0.04741630  0.06912292     0.07300
C1056       C  0.66449734  0.07445457  0.10365005    -0.02900
Br1057     Br  0.62468101  0.07797120  0.12750200    -0.01400
Br1058     Br  0.70225239  0.13598498  0.16746167    -0.01500
Br1059     Br  0.67544066  0.98752124  0.06010845    -0.01400
Br1060     Br  0.71939665  0.01234163  0.16877707    -0.01400
C1061       C  0.69077333  0.07675072  0.36963440    -0.02500
C1062       C  0.72615036  0.08821649  0.37978536     0.07100
C1063       C  0.73629141  0.08299349  0.43112270    -0.02700
C1064       C  0.71103907  0.06303048  0.47133761    -0.02700
C1065       C  0.67424405  0.05197672  0.46350939     0.07300
C1066       C  0.66508980  0.05728622  0.40939113    -0.02900
Br1067     Br  0.61800096  0.03362025  0.38285830    -0.01400
Br1068     Br  0.67709207  0.08784457  0.30042015    -0.01500
Br1069     Br  0.72917346  0.04311452  0.52394834    -0.01400
Br1070     Br  0.78595795  0.10591699  0.44687676    -0.01400
C1071       C  0.64687747  0.10361874  0.00528622    -0.02500
C1072       C  0.62623725  0.06583432  0.00328964     0.07100
C1073       C  0.58908364  0.05333743  0.00294909    -0.02700
C1074       C  0.57498108  0.07505362  0.01783196    -0.02700
C1075       C  0.59726772  0.11101973  0.51450960     0.07300
C1076       C  0.63243406  0.12485194  0.01994990    -0.02900
Br1077     Br  0.66438185  0.16227419  0.06542425    -0.01400
Br1078     Br  0.69476880  0.13189491  0.97969528    -0.01500
Br1079     Br  0.53340255  0.04737588  0.55727382    -0.01400
Br1080     Br  0.55384497  0.00992747  0.97197426    -0.01400
C1081       C  0.60351627  0.37727117  0.43789959    -0.02500
C1082       C  0.56633252  0.36670282  0.43875797     0.07100
C1083       C  0.54604829  0.34565974  0.39431694    -0.02700
C1084       C  0.56280389  0.33901927  0.35112593    -0.02700
C1085       C  0.59794050  0.34708733  0.35469524     0.07300
C1086       C  0.61785196  0.36545425  0.39857738    -0.02900
Br1087     Br  0.66453911  0.37169117  0.40754281    -0.01400
Br1088     Br  0.63877590  0.40656838  0.99203266    -0.01500
Br1089     Br  0.53769000  0.31865071  0.28561580    -0.01400
Br1090     Br  0.49553929  0.31750427  0.39301244    -0.01400
C1091       C  0.58775756  0.32503500  0.08063649    -0.02500
C1092       C  0.60404779  0.34851601  0.12208881     0.07100
C1093       C  0.60068635  0.37866705  0.12321817    -0.02700
C1094       C  0.57618414  0.38149238  0.08938339    -0.02700
C1095       C  0.56594198  0.36359536  0.03969423     0.07300
C1096       C  0.57220058  0.33376428  0.03706141    -0.02900
Br1097     Br  0.55544710  0.29911410  0.98077747    -0.01400
Br1098     Br  0.58562501  0.27985057  0.08450279    -0.01500
Br1099     Br  0.54186042  0.38456705  0.13241796    -0.01400
Br1100     Br  0.62326740  0.41231624  0.17873548    -0.01400
C1101       C  0.56696604  0.44105662  0.02961486    -0.02500
C1102       C  0.57261787  0.42186335  0.98901003     0.07100
C1103       C  0.59561130  0.44249291  0.44658840    -0.02700
C1104       C  0.62243682  0.47712024  0.45732625    -0.02700
C1105       C  0.61942519  0.99938281  0.00245020     0.07300
C1106       C  0.59229783  0.47669364  0.04103233    -0.02900
Br1107     Br  0.58148856  0.99706504  0.10119536    -0.01400
Br1108     Br  0.51947972  0.42750645  0.05208786    -0.01500
Br1109     Br  0.66922507  0.98596525  0.43120420    -0.01400
Br1110     Br  0.59292008  0.43275902  0.36994778    -0.01400
C1111       C  0.88694908  0.25802760  0.36450011    -0.02500
C1112       C  0.85311851  0.22820109  0.36660105     0.07100
C1113       C  0.82933899  0.22637656  0.40606676    -0.02700
C1114       C  0.83937577  0.25316067  0.44375448    -0.02700
C1115       C  0.87447668  0.28330723  0.44443001     0.07300
C1116       C  0.89594432  0.28653856  0.39859152    -0.02900
Br1117     Br  0.92631427  0.33066126  0.36246060    -0.01400
Br1118     Br  0.92114924  0.26228463  0.31107719    -0.01500
Br1119     Br  0.80081370  0.25113653  0.48435122    -0.01400
Br1120     Br  0.78219997  0.18644187  0.41006050    -0.01400
C1121       C  0.88189297  0.22790175  0.09311001    -0.02500
C1122       C  0.86162736  0.22800968  0.13645119     0.07100
C1123       C  0.85242035  0.25457566  0.13788567    -0.02700
C1124       C  0.85750382  0.27701323  0.09258460    -0.02700
C1125       C  0.87886707  0.27838478  0.04763407     0.07300
C1126       C  0.89064746  0.25244241  0.04949061    -0.02900
Br1127     Br  0.91969698  0.24877743  0.99352143    -0.01400
Br1128     Br  0.89990227  0.19532448  0.09463545    -0.01500
Br1129     Br  0.82677082  0.29705010  0.09244107    -0.01400
Br1130     Br  0.83649877  0.26331555  0.20539709    -0.01400
C1131       C  0.95299455  0.36106114  0.47025404    -0.02500
C1132       C  0.93303650  0.32940849  0.00240253     0.07100
C1133       C  0.95316064  0.32406124  0.04453158    -0.02700
C1134       C  0.48807101  0.33305195  0.02794124    -0.02700
C1135       C  0.51078883  0.36120846  0.99106891     0.07300
C1136       C  0.48983823  0.37183637  0.46149088    -0.02900
Br1137     Br  0.51191144  0.40609563  0.40339721    -0.01400
Br1138     Br  0.93890525  0.39373100  0.43927078    -0.01500
Br1139     Br  0.49607668  0.29695785  0.06066236    -0.01400
Br1140     Br  0.94033565  0.31404607  0.12137481    -0.01400
C1141       C  0.85316293  0.33964749  0.44460877    -0.02500
C1142       C  0.87297629  0.33096774  0.99450564     0.07100
C1143       C  0.88489499  0.36047052  0.02898895    -0.02700
C1144       C  0.87615897  0.38748359  0.02017503    -0.02700
C1145       C  0.84772390  0.38316477  0.98758008     0.07300
C1146       C  0.84384099  0.36679059  0.44169446    -0.02900
Br1147     Br  0.83349347  0.37815590  0.36850991    -0.01400
Br1148     Br  0.83934232  0.31214351  0.37921624    -0.01500
Br1149     Br  0.91366453  0.43381105  0.03551767    -0.01400
Br1150     Br  0.91366823  0.36729918  0.09110461    -0.01400
C1151       C  0.88704436  0.30831120  0.49556307    -0.03200
C1152       C  0.55134863  0.37660817  0.48965025    -0.03200
C1153       C  0.64498884  0.03747290  0.50986515    -0.03200
C1154       C  0.58016626  0.13994574  0.01134767    -0.03200
C1155       C  0.91690490  0.06395438  0.50547701    -0.03200
C1156       C  0.82728554  0.40987408  0.49626289    -0.03200
O1157       O  0.70349645  0.36260025  0.80418011    -0.82500
C1158       C  0.63059857  0.24301786  0.67709060     0.96900
O1159       O  0.65786430  0.25188248  0.70385157    -0.71600
O1160       O  0.71087850  0.31345735  0.68753067    -0.75200
Al1161     Al  0.68456199  0.28878345  0.74958528     1.49000
C1162       C  0.72266597  0.34493202  0.67240197     0.92100
O1163       O  0.65086435  0.35688239  0.67953252    -0.81400
O1164       O  0.60149562  0.30289609  0.80398767    -0.75000
Al1165     Al  0.67562280  0.35572191  0.74219017     1.90100
O1166       O  0.60059857  0.30920831  0.69406835    -0.74000
O1167       O  0.60787075  0.24581616  0.79450041    -0.73900
O1168       O  0.61080984  0.25565340  0.68517595    -0.79600
O1169       O  0.66224314  0.25988570  0.81143678    -0.77800
O1170       O  0.65654880  0.30849683  0.74573405    -1.13900
O1171       O  0.71785587  0.32160489  0.79696970    -0.73100
C1172       C  0.72127594  0.34848791  0.81917200     0.97600
C1173       C  0.61916054  0.33758988  0.66797895     0.94000
Al1174     Al  0.60962907  0.28096333  0.74465183     1.55600
O1175       O  0.71292597  0.36405812  0.69494477    -0.77700
C1176       C  0.62995027  0.24078393  0.82058417     0.98200
C1177       C  0.61497924  0.33517715  0.81332262     0.93100
O1178       O  0.64217765  0.35756718  0.78838412    -0.83000
O1179       O  0.86197975  0.19461240  0.69882760    -0.82500
C1180       C  0.75005966  0.09734523  0.83018592     0.96900
O1181       O  0.76474614  0.12962935  0.81830731    -0.71600
O1182       O  0.81859884  0.19188971  0.79650677    -0.75200
Al1183     Al  0.78775532  0.15259635  0.75310824     1.49000
C1184       C  0.84689475  0.20022131  0.82125171     0.92100
O1185       O  0.87189344  0.13076711  0.79486066    -0.81400
O1186       O  0.82866232  0.08179280  0.71349179    -0.75000
Al1187     Al  0.86169451  0.15955120  0.74789313     1.90100
O1188       O  0.82116414  0.08814161  0.82050780    -0.74000
O1189       O  0.76664151  0.07766751  0.69586448    -0.73900
O1190       O  0.75735506  0.07732746  0.80488934    -0.79600
O1191       O  0.75098957  0.11695644  0.71147429    -0.77800
O1192       O  0.81490317  0.13270445  0.75265875    -1.13900
O1193       O  0.80668624  0.17893356  0.68717488    -0.73100
C1194       C  0.83850398  0.19802470  0.67402855     0.97600
C1195       C  0.85358209  0.10408432  0.82549789     0.94000
Al1196     Al  0.79531891  0.08565901  0.75815051     1.55600
O1197       O  0.86510365  0.18628104  0.80948482    -0.77700
C1198       C  0.74616217  0.08988191  0.68743453     0.98200
C1199       C  0.85358242  0.10349890  0.68382078     0.93100
O1200       O  0.86506445  0.13611613  0.68702033    -0.83000
C1201       C  0.80883240  0.38111596  0.59678587    -0.02500
C1202       C  0.80338843  0.39759222  0.54941975     0.07100
C1203       C  0.77185486  0.40027482  0.55017304    -0.02700
C1204       C  0.74449621  0.38013636  0.58681966    -0.02700
C1205       C  0.74892884  0.36032397  0.62839943     0.07300
C1206       C  0.78084196  0.36028854  0.63278795    -0.02900
Br1207     Br  0.78777644  0.33477012  0.69268067    -0.01400
Br1208     Br  0.85328803  0.40055944  0.63242601    -0.01500
Br1209     Br  0.69969418  0.37809776  0.57737654    -0.01400
Br1210     Br  0.76651330  0.43165885  0.00626262    -0.01400
C1211       C  0.77408645  0.39813995  0.85904116    -0.02500
C1212       C  0.74669582  0.36361425  0.86346501     0.07100
C1213       C  0.74360386  0.34335797  0.90982280    -0.02700
C1214       C  0.76960590  0.35611978  0.94984809    -0.02700
C1215       C  0.79785852  0.39244603  0.94826487     0.07300
C1216       C  0.79685910  0.41371950  0.90276792    -0.02900
Br1217     Br  0.81836326  0.46393779  0.89766168    -0.01400
Br1218     Br  0.78144719  0.42341263  0.79028483    -0.01500
Br1219     Br  0.76526839  0.32070038  0.00369547    -0.01400
Br1220     Br  0.70280919  0.29756372  0.91802214    -0.01400
C1221       C  0.86509803  0.05690924  0.94826718    -0.02500
C1222       C  0.90241858  0.07600303  0.95876055     0.07100
C1223       C  0.92396045  0.10248574  0.91842838    -0.02700
C1224       C  0.90821317  0.11135814  0.87489027    -0.02700
C1225       C  0.87146929  0.09288644  0.86717798     0.07300
C1226       C  0.85074543  0.06308441  0.90120192    -0.02900
Br1227     Br  0.80237492  0.02910327  0.88413514    -0.01400
Br1228     Br  0.82988058  0.02454386  0.00035486    -0.01500
Br1229     Br  0.93922726  0.14947066  0.82499584    -0.01400
Br1230     Br  0.97480140  0.12773327  0.91686770    -0.01400
C1231       C  0.85881182  0.09280021  0.58930760    -0.02500
C1232       C  0.86795050  0.09067975  0.64204065     0.07100
C1233       C  0.89505774  0.08321431  0.65272353    -0.02700
C1234       C  0.91410484  0.07930293  0.60990483    -0.02700
C1235       C  0.90347134  0.07859187  0.55451052     0.07300
C1236       C  0.87974865  0.09294551  0.54689898    -0.02900
Br1237     Br  0.88575368  0.12959356  0.99617495    -0.01400
Br1238     Br  0.81682834  0.09591735  0.57597531    -0.01500
Br1239     Br  0.96057625  0.08876235  0.63046282    -0.01400
Br1240     Br  0.90542807  0.07772232  0.72696555    -0.01400
C1241       C  0.88793451  0.50499159  0.55352347    -0.02500
C1242       C  0.90007537  0.02190389  0.50700500     0.07100
C1243       C  0.89580265  0.50300586  0.95136783    -0.02700
C1244       C  0.87797289  0.46551460  0.95459002    -0.02700
C1245       C  0.85439504  0.45130059  0.50083063     0.07300
C1246       C  0.85826881  0.47191670  0.54798967    -0.02900
Br1247     Br  0.82879998  0.46314183  0.61089546    -0.01400
Br1248     Br  0.91461795  0.00683045  0.61536758    -0.01500
Br1249     Br  0.88823390  0.44286164  0.89799558    -0.01400
Br1250     Br  0.92376387  0.03302609  0.89329972    -0.01400
C1251       C  0.60457537  0.18147758  0.65074645    -0.02500
C1252       C  0.62206531  0.21707971  0.63602756     0.07100
C1253       C  0.63610217  0.22785902  0.58434608    -0.02700
C1254       C  0.62664386  0.20295548  0.54409074    -0.02700
C1255       C  0.60065701  0.16621836  0.55508880     0.07300
C1256       C  0.59612514  0.15613721  0.61131258    -0.02900
Br1257     Br  0.57544488  0.10872484  0.63858253    -0.01400
Br1258     Br  0.58743829  0.16748039  0.72414336    -0.01500
Br1259     Br  0.65890176  0.22041308  0.48297437    -0.01400
Br1260     Br  0.67148198  0.27669245  0.57123003    -0.01400
C1261       C  0.59709187  0.21648575  0.90553209    -0.02500
C1262       C  0.61712327  0.21371963  0.86515333     0.07100
C1263       C  0.62381709  0.18550094  0.86730118    -0.02700
C1264       C  0.60945267  0.15910406  0.90953905    -0.02700
C1265       C  0.58943206  0.16184529  0.95403748     0.07300
C1266       C  0.58147080  0.19032048  0.94664350    -0.02900
Br1267     Br  0.55354321  0.20063554  0.99334638    -0.01400
Br1268     Br  0.59804425  0.26127876  0.91014203    -0.00300
Br1269     Br  0.61783820  0.12045932  0.89796017    -0.01400
Br1270     Br  0.65568411  0.18515173  0.81377359    -0.01400
C1271       C  0.51687153  0.12615583  0.54665324    -0.02500
C1272       C  0.53765345  0.12015361  0.01473112     0.07100
C1273       C  0.51699806  0.09256281  0.97884700    -0.02700
C1274       C  0.97905368  0.06995441  0.99944441    -0.02700
C1275       C  0.95918535  0.08340171  0.50517433     0.07300
C1276       C  0.98031720  0.12030122  0.51518324    -0.02900
Br1277     Br  0.96135326  0.15171997  0.51207454    -0.01400
Br1278     Br  0.52815744  0.15262669  0.61179282    -0.01500
Br1279     Br  0.96649094  0.02124492  0.99700024    -0.01400
Br1280     Br  0.53408890  0.08303346  0.91417142    -0.01400
C1281       C  0.70359487  0.09291851  0.62189363    -0.02500
C1282       C  0.71588977  0.07265311  0.64948884     0.07100
C1283       C  0.69632485  0.03566864  0.64365075    -0.02700
C1284       C  0.67082371  0.02114080  0.60162591    -0.02700
C1285       C  0.66220082  0.04385137  0.56919867     0.07300
C1286       C  0.67210066  0.07595269  0.59421194    -0.02900
Br1287     Br  0.63597733  0.07941614  0.63195396    -0.01400
Br1288     Br  0.72528062  0.14319487  0.62664849    -0.01500
Br1289     Br  0.65367647  0.97224647  0.58829885    -0.01400
Br1290     Br  0.70383430  0.00505115  0.69317134    -0.01400
C1291       C  0.68924328  0.07378827  0.86552410    -0.02500
C1292       C  0.72408953  0.08275570  0.87452124     0.07100
C1293       C  0.73471603  0.07933561  0.92627630    -0.02700
C1294       C  0.71170119  0.07104917  0.97059487    -0.02700
C1295       C  0.67420990  0.05678857  0.96289728     0.07300
C1296       C  0.66409193  0.05829416  0.90756436    -0.02900
Br1297     Br  0.61634876  0.03672081  0.88387885    -0.01400
Br1298     Br  0.67614966  0.08220222  0.79410912    -0.01500
Br1299     Br  0.73789802  0.09320596  0.03372917    -0.01400
Br1300     Br  0.78276725  0.08975189  0.93654609    -0.01400
C1301       C  0.64827638  0.10046536  0.50482872    -0.02500
C1302       C  0.62698458  0.06263077  0.50329390     0.07100
C1303       C  0.59006923  0.05110095  0.50157887    -0.02700
C1304       C  0.57636459  0.07329820  0.51561380    -0.02700
C1305       C  0.59555715  0.11280051  0.01747127     0.07300
C1306       C  0.63416280  0.12253966  0.51762437    -0.02900
Br1307     Br  0.66697032  0.16264953  0.55787250    -0.01400
Br1308     Br  0.69833645  0.12638464  0.48820337    -0.01500
Br1309     Br  0.53332102  0.04860322  0.06184128    -0.01400
Br1310     Br  0.55499496  0.00913987  0.46754702    -0.01400
C1311       C  0.60549158  0.37877274  0.93719420    -0.02500
C1312       C  0.56840612  0.36862263  0.93808750     0.07100
C1313       C  0.54788384  0.34711144  0.89409728    -0.02700
C1314       C  0.56418868  0.33941289  0.85143342    -0.02700
C1315       C  0.59932162  0.34740816  0.85461529     0.07300
C1316       C  0.61974846  0.36694870  0.89749964    -0.02900
Br1317     Br  0.66742145  0.37537368  0.90419253    -0.01400
Br1318     Br  0.63680100  0.40549729  0.49243998    -0.01500
Br1319     Br  0.53821626  0.31733493  0.78723587    -0.01400
Br1320     Br  0.49737553  0.31843269  0.89393645    -0.01400
C1321       C  0.59107558  0.32680522  0.57779782    -0.02500
C1322       C  0.60299949  0.34765762  0.62299331     0.07100
C1323       C  0.59359021  0.37358800  0.62953639    -0.02700
C1324       C  0.57084096  0.37728082  0.59249633    -0.02700
C1325       C  0.56445979  0.36211658  0.54045715     0.07300
C1326       C  0.57266449  0.33364800  0.53655041    -0.02900
Br1327     Br  0.55385011  0.29763112  0.48207039    -0.01400
Br1328     Br  0.59936314  0.28757337  0.57339319    -0.01500
Br1329     Br  0.53590819  0.38351295  0.62841751    -0.01400
Br1330     Br  0.60736334  0.40039919  0.69437735    -0.01400
C1331       C  0.56524219  0.43990374  0.52676551    -0.02500
C1332       C  0.57044519  0.41988211  0.48740246     0.07100
C1333       C  0.59844822  0.44511108  0.94963496    -0.02700
C1334       C  0.62483840  0.47960117  0.96201879    -0.02700
C1335       C  0.61903399  0.99593621  0.50209870     0.07300
C1336       C  0.59098995  0.47540357  0.53693380    -0.02900
Br1337     Br  0.57958937  0.99414840  0.59874024    -0.01400
Br1338     Br  0.51802999  0.42902105  0.54659363    -0.01500
Br1339     Br  0.66871414  0.99086122  0.92632915    -0.01400
Br1340     Br  0.59736705  0.43634670  0.87282259    -0.01400
C1341       C  0.88826110  0.25946995  0.85918333    -0.02500
C1342       C  0.85826101  0.22633105  0.86516320     0.07100
C1343       C  0.83680248  0.21945569  0.91053121    -0.02700
C1344       C  0.84560018  0.24453753  0.95090829    -0.02700
C1345       C  0.87689996  0.27930615  0.94663122     0.07300
C1346       C  0.89520910  0.28646239  0.89573459    -0.02900
Br1347     Br  0.91731548  0.33176002  0.86061124    -0.01400
Br1348     Br  0.91835584  0.26896225  0.79687414    -0.01500
Br1349     Br  0.80814084  0.23116288  0.00396741    -0.01400
Br1350     Br  0.79423876  0.17471835  0.91723592    -0.01400
C1351       C  0.86864834  0.22468607  0.58559826    -0.02500
C1352       C  0.84878179  0.22498739  0.62914378     0.07100
C1353       C  0.83980394  0.25160865  0.63072653    -0.02700
C1354       C  0.84852439  0.27670313  0.58738764    -0.02700
C1355       C  0.87196098  0.27928420  0.54421567     0.07300
C1356       C  0.88148879  0.25173004  0.54530965    -0.02900
Br1357     Br  0.91469374  0.25009824  0.49514814    -0.01400
Br1358     Br  0.87879917  0.18661203  0.58150001    -0.01500
Br1359     Br  0.82260678  0.30185972  0.58961169    -0.01400
Br1360     Br  0.81757012  0.25508980  0.69567654    -0.01400
C1361       C  0.95530278  0.35881609  0.96768179    -0.02500
C1362       C  0.92983575  0.33103941  0.50319201     0.07100
C1363       C  0.94872515  0.32442039  0.54588308    -0.02700
C1364       C  0.48683153  0.33066287  0.53070192    -0.02700
C1365       C  0.50891525  0.35873854  0.49297110     0.07300
C1366       C  0.49207916  0.37447856  0.95871766    -0.02900
Br1367     Br  0.51564308  0.40986914  0.90265603    -0.01400
Br1368     Br  0.94188235  0.39309515  0.94254564    -0.01500
Br1369     Br  0.49658561  0.29619250  0.56586024    -0.01400
Br1370     Br  0.93148980  0.31013768  0.62063649    -0.01400
C1371       C  0.84887010  0.33037398  0.95349153    -0.02500
C1372       C  0.87178678  0.33539038  0.49100187     0.07100
C1373       C  0.88230330  0.36286643  0.52910888    -0.02700
C1374       C  0.87502812  0.39079383  0.52179117    -0.02700
C1375       C  0.84842832  0.38856703  0.48698810     0.07300
C1376       C  0.84071188  0.35801864  0.94644717    -0.02900
Br1377     Br  0.82947868  0.36434316  0.87167740    -0.01400
Br1378     Br  0.81956788  0.29159858  0.90774425    -0.01500
Br1379     Br  0.91355120  0.43608571  0.54037998    -0.01400
Br1380     Br  0.90832438  0.36647047  0.59352304    -0.01400
C1381       C  0.88910980  0.80677224  0.99018725    -0.03200
C1382       C  0.55372882  0.87833260  0.00107962    -0.03200
C1383       C  0.64611336  0.54136013  0.01234997    -0.03200
C1384       C  0.57996789  0.63694370  0.50437495    -0.03200
C1385       C  0.92051568  0.56505850  0.00094683    -0.03200
C1386       C  0.82640522  0.90597691  0.98933178    -0.03200
O1387       O  0.70334480  0.86081972  0.30907928    -0.82500
C1388       C  0.63260518  0.74271578  0.18153912     0.96900
O1389       O  0.66029331  0.75107552  0.20719314    -0.71600
O1390       O  0.71137653  0.81287451  0.18557097    -0.75200
Al1391     Al  0.68848249  0.78929918  0.25067568     1.49000
C1392       C  0.72445450  0.84486095  0.17287091     0.92100
O1393       O  0.65294353  0.85175062  0.18054642    -0.81400
O1394       O  0.60676769  0.80094237  0.31398273    -0.75000
Al1395     Al  0.67724686  0.85394482  0.24500347     1.90100
O1396       O  0.60181054  0.80740834  0.20406185    -0.74000
O1397       O  0.61399377  0.74541949  0.30180431    -0.73900
O1398       O  0.61290012  0.75500436  0.19204762    -0.79600
O1399       O  0.66943976  0.76205557  0.31467313    -0.77800
O1400       O  0.65952062  0.80747229  0.24986977    -1.13900
O1401       O  0.72295173  0.82415637  0.29560377    -0.73100
C1402       C  0.72318530  0.84852564  0.32177751     0.97600
C1403       C  0.62042606  0.83354838  0.17321261     0.94000
Al1404     Al  0.61299135  0.77949224  0.25277180     1.55600
O1405       O  0.71678101  0.86418441  0.19963100    -0.77700
C1406       C  0.63771895  0.74272656  0.32711746     0.98200
C1407       C  0.61709921  0.83319157  0.31819812     0.93100
O1408       O  0.64180574  0.85558452  0.28852355    -0.83000
O1409       O  0.86796548  0.68567620  0.18683121    -0.82500
C1410       C  0.75615550  0.59402516  0.33130751     0.96900
O1411       O  0.75833104  0.61917314  0.30162937    -0.71600
O1412       O  0.81530531  0.68150358  0.31057249    -0.75200
Al1413     Al  0.79272325  0.65242835  0.25055030     1.49000
C1414       C  0.84752977  0.69943009  0.32149070     0.92100
O1415       O  0.87270505  0.63827835  0.31376123    -0.81400
O1416       O  0.82101313  0.58386987  0.19055060    -0.75000
Al1417     Al  0.86676568  0.65933937  0.25026772     1.90100
O1418       O  0.83659873  0.58391957  0.29552623    -0.74000
O1419       O  0.75835070  0.57525478  0.21794118    -0.73900
O1420       O  0.77663377  0.58189432  0.32341662    -0.79600
O1421       O  0.76626972  0.62620989  0.19006964    -0.77800
O1422       O  0.81992315  0.63270186  0.25221718    -1.13900
O1423       O  0.82097810  0.68951635  0.19945006    -0.73100
C1424       C  0.84957234  0.69970719  0.17460430     0.97600
C1425       C  0.86191591  0.60615666  0.32190759     0.94000
Al1426     Al  0.80005276  0.58566712  0.25643681     1.55600
O1427       O  0.86962552  0.69486108  0.29601752    -0.77700
C1428       C  0.74919944  0.59313307  0.18838681     0.98200
C1429       C  0.85355624  0.60059682  0.18019366     0.93100
O1430       O  0.87385319  0.62832888  0.20464105    -0.83000
C1431       C  0.80810406  0.87795507  0.09039029    -0.02500
C1432       C  0.80158909  0.89262280  0.04183347     0.07100
C1433       C  0.76959913  0.89483085  0.04269938    -0.02700
C1434       C  0.74468017  0.87901761  0.08489716    -0.02700
C1435       C  0.74984323  0.86003705  0.12714157     0.07300
C1436       C  0.78113393  0.85867311  0.12878259    -0.02900
Br1437     Br  0.78926726  0.83438491  0.18915221    -0.01400
Br1438     Br  0.85353423  0.89716256  0.12237490    -0.01500
Br1439     Br  0.70358375  0.88465743  0.08551371    -0.01400
Br1440     Br  0.76762582  0.93094077  0.51313632    -0.01400
C1441       C  0.77357176  0.89857520  0.36531458    -0.02500
C1442       C  0.74770926  0.86333115  0.36726889     0.07100
C1443       C  0.74534923  0.84217703  0.41218240    -0.02700
C1444       C  0.77107353  0.85477074  0.45257784    -0.02700
C1445       C  0.79828092  0.89144205  0.45318507     0.07300
C1446       C  0.79671345  0.91342042  0.40904843    -0.02900
Br1447     Br  0.82013118  0.96365241  0.40393270    -0.01400
Br1448     Br  0.77773391  0.92610391  0.29975673    -0.01500
Br1449     Br  0.76822459  0.81862360  0.50365837    -0.01400
Br1450     Br  0.70552692  0.79560943  0.41922390    -0.01400
C1451       C  0.87054463  0.56068994  0.44686095    -0.02500
C1452       C  0.90800250  0.57901127  0.45688766     0.07100
C1453       C  0.93006581  0.60494112  0.41635922    -0.02700
C1454       C  0.91480921  0.61280154  0.37131471    -0.02700
C1455       C  0.87828323  0.59440456  0.36377853     0.07300
C1456       C  0.85685578  0.56630862  0.39886756    -0.02900
Br1457     Br  0.80775159  0.53511269  0.38248530    -0.01400
Br1458     Br  0.83497501  0.52975595  0.49967088    -0.01500
Br1459     Br  0.94441453  0.64817527  0.31743867    -0.01400
Br1460     Br  0.98054873  0.63294227  0.41858969    -0.01400
C1461       C  0.86720020  0.60111753  0.08402782    -0.02500
C1462       C  0.86838321  0.58952551  0.13632453     0.07100
C1463       C  0.88994499  0.57489394  0.14762411    -0.02700
C1464       C  0.91116707  0.57267812  0.10679358    -0.02700
C1465       C  0.90651441  0.57888219  0.05064440     0.07300
C1466       C  0.88806748  0.59908272  0.04277717    -0.02900
Br1467     Br  0.89842138  0.63795300  0.49213849    -0.01400
Br1468     Br  0.83696209  0.62131769  0.07036723    -0.01500
Br1469     Br  0.95477974  0.57839832  0.13523103    -0.01400
Br1470     Br  0.89125326  0.55886170  0.22076204    -0.01400
C1471       C  0.88213985  0.00064071  0.05145660    -0.02500
C1472       C  0.90311786  0.52295757  0.99997562     0.07100
C1473       C  0.89492185  0.00151453  0.45965161    -0.02700
C1474       C  0.87843296  0.96429797  0.46375101    -0.02700
C1475       C  0.85155841  0.94811717  0.99473419     0.07300
C1476       C  0.85325022  0.96756774  0.04241875    -0.02900
Br1477     Br  0.82154150  0.95742754  0.10297635    -0.01400
Br1478     Br  0.92029872  0.50120261  0.10039908    -0.01500
Br1479     Br  0.89553250  0.94342873  0.41335181    -0.01400
Br1480     Br  0.92032394  0.53125113  0.38947237    -0.01400
C1481       C  0.60694398  0.68159071  0.15462352    -0.02500
C1482       C  0.62261634  0.71707073  0.13982615     0.07100
C1483       C  0.63111272  0.72811868  0.08613203    -0.02700
C1484       C  0.62260265  0.70314464  0.04646642    -0.02700
C1485       C  0.59791345  0.66633121  0.05833830     0.07300
C1486       C  0.59452441  0.65619927  0.11474866    -0.02900
Br1487     Br  0.56964452  0.60895009  0.14275941    -0.01400
Br1488     Br  0.59905200  0.66810797  0.23060329    -0.01500
Br1489     Br  0.65412848  0.72119668  0.98438201    -0.01400
Br1490     Br  0.65629395  0.77794068  0.06751264    -0.01400
C1491       C  0.60595662  0.71746188  0.41264371    -0.02500
C1492       C  0.62727969  0.71657436  0.37221635     0.07100
C1493       C  0.63212504  0.68709786  0.37015155    -0.02700
C1494       C  0.61365316  0.65778656  0.40676432    -0.02700
C1495       C  0.59115455  0.65879331  0.44789388     0.07300
C1496       C  0.58283325  0.68633941  0.43965577    -0.02900
Br1497     Br  0.53863395  0.67579718  0.40970397    -0.01400
Br1498     Br  0.60291303  0.75916929  0.42486553    -0.00300
Br1499     Br  0.61637466  0.61668319  0.39067328    -0.01400
Br1500     Br  0.66780575  0.68933028  0.32236993    -0.01400
C1501       C  0.51517956  0.62752784  0.04894170    -0.02500
C1502       C  0.53787101  0.61942502  0.50517191     0.07100
C1503       C  0.51620570  0.58715089  0.48048144    -0.02700
C1504       C  0.98228108  0.57056921  0.49163633    -0.02700
C1505       C  0.96274443  0.58267075  0.00224367     0.07300
C1506       C  0.98443231  0.61548348  0.02695273    -0.02900
Br1507     Br  0.97090029  0.65097969  0.03547761    -0.01400
Br1508     Br  0.52735798  0.65543019  0.11325830    -0.01500
Br1509     Br  0.96859637  0.52146760  0.48611963    -0.01400
Br1510     Br  0.53033641  0.57358995  0.41644110    -0.01400
C1511       C  0.69535051  0.58889887  0.14290288    -0.02500
C1512       C  0.71774674  0.57479460  0.15283473     0.07100
C1513       C  0.70892501  0.54240099  0.12928151    -0.02700
C1514       C  0.68283457  0.52857236  0.08862515    -0.02700
C1515       C  0.66427958  0.54655563  0.07080193     0.07300
C1516       C  0.66661111  0.57226218  0.10780874    -0.02900
Br1517     Br  0.62670689  0.57621198  0.12989007    -0.01400
Br1518     Br  0.70296551  0.63121998  0.17722022    -0.01500
Br1519     Br  0.67253090  0.48348103  0.06380746    -0.01400
Br1520     Br  0.73520066  0.51839269  0.14703694    -0.01400
C1521       C  0.69350133  0.56842388  0.36328923    -0.02500
C1522       C  0.72860892  0.57862691  0.37490435     0.07100
C1523       C  0.73759144  0.57663653  0.42857354    -0.02700
C1524       C  0.71331494  0.56954083  0.47095841    -0.02700
C1525       C  0.67602347  0.55501926  0.46097414     0.07300
C1526       C  0.66750388  0.55608190  0.40471462    -0.02900
Br1527     Br  0.62029496  0.53821769  0.37962991    -0.01400
Br1528     Br  0.68019448  0.56713727  0.28850056    -0.01500
Br1529     Br  0.73777444  0.59487278  0.53365184    -0.01400
Br1530     Br  0.78494067  0.58713935  0.44507908    -0.01400
C1531       C  0.64682007  0.60300249  0.00778737    -0.02500
C1532       C  0.62679321  0.56512292  0.00739653     0.07100
C1533       C  0.58952252  0.55209927  0.00826982    -0.02700
C1534       C  0.57493104  0.57378670  0.02128059    -0.02700
C1535       C  0.59512425  0.60962079  0.51301862     0.07300
C1536       C  0.63209396  0.62405997  0.02185100    -0.02900
Br1537     Br  0.66510632  0.66376567  0.06288770    -0.01400
Br1538     Br  0.69215825  0.63194473  0.97379587    -0.01500
Br1539     Br  0.53760943  0.54480483  0.56253353    -0.01400
Br1540     Br  0.55471742  0.50812749  0.97876767    -0.01400
C1541       C  0.60522778  0.87696679  0.44010297    -0.02500
C1542       C  0.56775857  0.86507763  0.44139326     0.07100
C1543       C  0.54740057  0.84058198  0.40033018    -0.02700
C1544       C  0.56390371  0.83172737  0.35927681    -0.02700
C1545       C  0.60037278  0.84501875  0.35857873     0.07300
C1546       C  0.62084008  0.86811618  0.39829950    -0.02900
Br1547     Br  0.67128609  0.88755845  0.39611269    -0.01400
Br1548     Br  0.63903239  0.90218668  0.00038318    -0.01500
Br1549     Br  0.53614816  0.79995379  0.30338716    -0.01400
Br1550     Br  0.49752553  0.80875483  0.40580819    -0.01400
C1551       C  0.57970604  0.82018807  0.09480316    -0.02500
C1552       C  0.60349247  0.84447763  0.13065300     0.07100
C1553       C  0.60724448  0.87810502  0.13156936    -0.02700
C1554       C  0.58697651  0.88740862  0.09736656    -0.02700
C1555       C  0.56718103  0.86562133  0.05318773     0.07300
C1556       C  0.56172850  0.83018730  0.05691076    -0.02900
Br1557     Br  0.52479238  0.79185494  0.01900412    -0.01400
Br1558     Br  0.57139874  0.77243243  0.09785710    -0.01500
Br1559     Br  0.57463025  0.91766359  0.13435152    -0.01400
Br1560     Br  0.63612167  0.90979429  0.18718012    -0.01400
C1561       C  0.56489611  0.94264846  0.02797047    -0.02500
C1562       C  0.57288150  0.92138952  0.99465875     0.07100
C1563       C  0.59777826  0.94177124  0.44898918    -0.02700
C1564       C  0.62431995  0.97578763  0.46202372    -0.02700
C1565       C  0.62062941  0.49905113  0.00462677     0.07300
C1566       C  0.58985064  0.97863919  0.03726719    -0.02900
Br1567     Br  0.58618814  0.49200214  0.10962263    -0.01400
Br1568     Br  0.51807811  0.92635149  0.05753396    -0.01500
Br1569     Br  0.66643896  0.48692494  0.42318930    -0.01400
Br1570     Br  0.59842953  0.93263738  0.37244656    -0.01400
C1571       C  0.88871015  0.76032886  0.35523270    -0.02500
C1572       C  0.85968400  0.72654446  0.36413443     0.07100
C1573       C  0.84014356  0.71980823  0.41170345    -0.02700
C1574       C  0.84783859  0.74649901  0.44850601    -0.02700
C1575       C  0.87946001  0.78071614  0.44404933     0.07300
C1576       C  0.89735829  0.78741176  0.39263396    -0.02900
Br1577     Br  0.92223671  0.83304043  0.35856478    -0.01400
Br1578     Br  0.91519029  0.77068926  0.28808955    -0.01500
Br1579     Br  0.80821744  0.73658883  0.49468302    -0.01400
Br1580     Br  0.80283553  0.67274090  0.42856972    -0.01400
C1581       C  0.88349776  0.73066780  0.08808441    -0.02500
C1582       C  0.86109342  0.72819432  0.13055646     0.07100
C1583       C  0.84927972  0.75308414  0.13054315    -0.02700
C1584       C  0.85637013  0.77753322  0.08657278    -0.02700
C1585       C  0.87776290  0.77942002  0.04112922     0.07300
C1586       C  0.88982333  0.75375232  0.04289652    -0.02900
Br1587     Br  0.91775271  0.74959154  0.98554824    -0.01400
Br1588     Br  0.91006150  0.70584507  0.09349869    -0.01500
Br1589     Br  0.83068242  0.80289991  0.09006926    -0.01400
Br1590     Br  0.82633022  0.75690693  0.19470268    -0.01400
C1591       C  0.95721751  0.85968240  0.46510160    -0.02500
C1592       C  0.93213786  0.83057053  0.99303055     0.07100
C1593       C  0.95259692  0.82543124  0.03458587    -0.02700
C1594       C  0.48867084  0.84096809  0.04938776    -0.02700
C1595       C  0.51125770  0.86199322  0.00440919     0.07300
C1596       C  0.49243193  0.87153501  0.45366420    -0.02900
Br1597     Br  0.51652456  0.90227061  0.39289783    -0.01400
Br1598     Br  0.94382234  0.89417275  0.44062425    -0.01500
Br1599     Br  0.50589356  0.83719950  0.12113881    -0.01400
Br1600     Br  0.94041100  0.81600037  0.11185805    -0.01400
C1601       C  0.85301432  0.83347673  0.45089063    -0.02500
C1602       C  0.87325862  0.83346517  0.98661405     0.07100
C1603       C  0.88599059  0.86318522  0.02124177    -0.02700
C1604       C  0.87734353  0.89032381  0.01352084    -0.02700
C1605       C  0.84965641  0.88656617  0.98012270     0.07300
C1606       C  0.84349963  0.86029160  0.44755605    -0.02900
Br1607     Br  0.83382206  0.87047965  0.37349552    -0.01400
Br1608     Br  0.82916553  0.79874991  0.39603768    -0.01500
Br1609     Br  0.91412095  0.93663473  0.03057162    -0.01400
Br1610     Br  0.91635860  0.87079112  0.08143258    -0.01400
C1611       C  0.89249663  0.80656358  0.49500134    -0.03200
C1612       C  0.55210246  0.87644980  0.49040059    -0.03200
C1613       C  0.64551289  0.53951575  0.50660107    -0.03200
C1614       C  0.57912287  0.63839313  0.01296362    -0.03200
C1615       C  0.92084506  0.56882101  0.51054627    -0.03200
C1616       C  0.82635588  0.90328318  0.50130953    -0.03200
O1617       O  0.69849154  0.85627684  0.80928987    -0.82500
C1618       C  0.62309397  0.74126939  0.67421391     0.96900
O1619       O  0.64810408  0.74653276  0.70465268    -0.71600
O1620       O  0.70324337  0.80751220  0.68772864    -0.75200
Al1621     Al  0.67674823  0.78344660  0.75023269     1.49000
C1622       C  0.71762545  0.83978502  0.67537101     0.92100
O1623       O  0.64922362  0.85655440  0.68441081    -0.81400
O1624       O  0.59660301  0.79973555  0.80647689    -0.75000
Al1625     Al  0.67193855  0.85235220  0.74712988     1.90100
O1626       O  0.59735484  0.81066853  0.69677193    -0.74000
O1627       O  0.59951648  0.74144663  0.78987221    -0.73900
O1628       O  0.60537295  0.75640728  0.68103977    -0.79600
O1629       O  0.65306452  0.75568913  0.81335150    -0.77800
O1630       O  0.65091586  0.80520975  0.74723287    -1.13900
O1631       O  0.71247926  0.81579821  0.79548033    -0.73100
C1632       C  0.71727836  0.84257436  0.81958269     0.97600
C1633       C  0.61761195  0.83887665  0.67166329     0.94000
Al1634     Al  0.60402390  0.77949897  0.74391694     1.55600
O1635       O  0.70955211  0.85975995  0.69975217    -0.77700
C1636       C  0.62028731  0.73632826  0.81927117     0.98200
C1637       C  0.61113901  0.83150107  0.81963520     0.93100
O1638       O  0.63848470  0.85437055  0.79498832    -0.83000
O1639       O  0.86382275  0.68446503  0.69292306    -0.82500
C1640       C  0.74997616  0.59359618  0.83030911     0.96900
O1641       O  0.75183925  0.61815935  0.79936803    -0.71600
O1642       O  0.80817628  0.68114374  0.80515860    -0.75200
Al1643     Al  0.78603143  0.65005434  0.74711968     1.49000
C1644       C  0.83939120  0.69640976  0.82172821     0.92100
O1645       O  0.86371197  0.63222212  0.81637770    -0.81400
O1646       O  0.81265469  0.58062614  0.69122997    -0.75000
Al1647     Al  0.85935389  0.65530832  0.75414927     1.90100
O1648       O  0.82743656  0.57858401  0.79567605    -0.74000
O1649       O  0.75028062  0.57209734  0.71975710    -0.73900
O1650       O  0.76952621  0.58032027  0.82306793    -0.79600
O1651       O  0.75997284  0.62270179  0.68751913    -0.77800
O1652       O  0.81264021  0.62969249  0.75261452    -1.13900
O1653       O  0.81476788  0.68550300  0.69474484    -0.73100
C1654       C  0.84519443  0.69711203  0.67559749     0.97600
C1655       C  0.85300139  0.60004219  0.82224484     0.94000
Al1656     Al  0.79195419  0.58247951  0.75702969     1.55600
O1657       O  0.86120746  0.68891947  0.80227914    -0.77700
C1658       C  0.74219436  0.58966871  0.68801362     0.98200
C1659       C  0.84524321  0.59773280  0.68114326     0.93100
O1660       O  0.86570831  0.62509021  0.70640036    -0.83000
C1661       C  0.80457639  0.87190869  0.60150618    -0.02500
C1662       C  0.80121124  0.89004063  0.55391495     0.07100
C1663       C  0.77045148  0.89421567  0.55407918    -0.02700
C1664       C  0.74232454  0.87510550  0.59022037    -0.02700
C1665       C  0.74509139  0.85490141  0.63261564     0.07300
C1666       C  0.77615826  0.85335947  0.63839894    -0.02900
Br1667     Br  0.78089975  0.82861379  0.70165668    -0.01400
Br1668     Br  0.84853546  0.88280523  0.63367253    -0.01500
Br1669     Br  0.69885713  0.87583239  0.58032495    -0.01400
Br1670     Br  0.76238607  0.92708106  0.99580241    -0.01400
C1671       C  0.76912643  0.89494846  0.85681187    -0.02500
C1672       C  0.74570636  0.85867142  0.85966655     0.07100
C1673       C  0.74936264  0.83800445  0.90052030    -0.02700
C1674       C  0.77352097  0.85370219  0.94235133    -0.02700
C1675       C  0.79803434  0.89137959  0.94197735     0.07300
C1676       C  0.79448992  0.91153889  0.89736695    -0.02900
Br1677     Br  0.81954777  0.96176621  0.88880931    -0.01400
Br1678     Br  0.76867753  0.92142512  0.79251610    -0.01500
Br1679     Br  0.77209233  0.82040214  0.99799501    -0.01400
Br1680     Br  0.72255034  0.78720444  0.89739904    -0.01400
C1681       C  0.86684950  0.55534218  0.94383778    -0.02500
C1682       C  0.90485886  0.57356469  0.94884198     0.07100
C1683       C  0.92481598  0.59788581  0.90513810    -0.02700
C1684       C  0.90728463  0.60431137  0.86188594    -0.02700
C1685       C  0.87050851  0.58761657  0.86077796     0.07300
C1686       C  0.85053671  0.56113966  0.89895931    -0.02900
Br1687     Br  0.79991169  0.53339973  0.89141150    -0.01400
Br1688     Br  0.83426745  0.52545511  0.00068709    -0.01500
Br1689     Br  0.93358308  0.63489869  0.80099498    -0.01400
Br1690     Br  0.97536792  0.62497117  0.89978361    -0.01400
C1691       C  0.86301903  0.60151305  0.58673099    -0.02500
C1692       C  0.86051993  0.58696987  0.63815027     0.07100
C1693       C  0.88102656  0.57153355  0.65160155    -0.02700
C1694       C  0.90567673  0.57238828  0.61445244    -0.02700
C1695       C  0.90476602  0.58136465  0.55846305     0.07300
C1696       C  0.88690074  0.60183197  0.54874816    -0.02900
Br1697     Br  0.89502003  0.63233820  0.98324218    -0.01400
Br1698     Br  0.83341507  0.62194699  0.56972283    -0.01500
Br1699     Br  0.94842943  0.58051704  0.64960248    -0.01400
Br1700     Br  0.87675022  0.55102445  0.72324741    -0.01400
C1701       C  0.88533809  0.00084987  0.55430258    -0.02500
C1702       C  0.90323388  0.52711619  0.50790642     0.07100
C1703       C  0.89711764  0.00721392  0.95800264    -0.02700
C1704       C  0.87848282  0.96972205  0.95571218    -0.02700
C1705       C  0.85279889  0.94493949  0.50508469     0.07300
C1706       C  0.85704870  0.96608650  0.55171008    -0.02900
Br1707     Br  0.83052098  0.95356880  0.61881470    -0.01400
Br1708     Br  0.91783359  0.50383496  0.60934851    -0.01500
Br1709     Br  0.89245573  0.95093987  0.89789980    -0.01400
Br1710     Br  0.91251097  0.52373899  0.87900988    -0.01400
C1711       C  0.58894686  0.68060424  0.64366983    -0.02500
C1712       C  0.61386046  0.71549473  0.63205910     0.07100
C1713       C  0.63355503  0.72439759  0.58427862    -0.02700
C1714       C  0.62552976  0.69916507  0.54468345    -0.02700
C1715       C  0.59611244  0.66385321  0.55192855     0.07300
C1716       C  0.58145527  0.65470556  0.60560569    -0.02900
Br1717     Br  0.54948243  0.60817193  0.63057515    -0.01400
Br1718     Br  0.56364537  0.66895942  0.71189752    -0.01500
Br1719     Br  0.66236319  0.71294304  0.49073118    -0.01400
Br1720     Br  0.67334293  0.77124173  0.57485916    -0.01400
C1721       C  0.58209001  0.70674992  0.90002961    -0.02500
C1722       C  0.60568330  0.70768047  0.86181771     0.07100
C1723       C  0.61535129  0.68156407  0.86466785    -0.02700
C1724       C  0.60506685  0.65700838  0.90932580    -0.02700
C1725       C  0.58630240  0.65971307  0.95545770     0.07300
C1726       C  0.57452124  0.68544477  0.94742599    -0.02900
Br1727     Br  0.55520492  0.70123713  0.00223527    -0.01400
Br1728     Br  0.56164691  0.73718670  0.88910901    -0.00300
Br1729     Br  0.61796771  0.62133162  0.90003909    -0.01400
Br1730     Br  0.64072037  0.67833321  0.80335288    -0.01400
C1731       C  0.51875618  0.63707185  0.52056876    -0.02500
C1732       C  0.53680391  0.61813727  0.01706450     0.07100
C1733       C  0.51630698  0.59103641  0.98036057    -0.02700
C1734       C  0.98336422  0.56921718  0.97771687    -0.02700
C1735       C  0.96248909  0.58484999  0.51594265     0.07300
C1736       C  0.98444620  0.61687099  0.54234596    -0.02900
Br1737     Br  0.97061145  0.65174263  0.55676151    -0.01400
Br1738     Br  0.54081924  0.68525905  0.54556923    -0.01500
Br1739     Br  0.96918940  0.52085330  0.96363094    -0.01400
Br1740     Br  0.53368655  0.58132445  0.91603996    -0.01400
C1741       C  0.68935484  0.58523661  0.64064931    -0.02500
C1742       C  0.71141390  0.57110340  0.65211623     0.07100
C1743       C  0.70323257  0.53874318  0.62930162    -0.02700
C1744       C  0.67910220  0.52573509  0.58617046    -0.02700
C1745       C  0.66161809  0.54428489  0.56620213     0.07300
C1746       C  0.66197168  0.56909505  0.60339256    -0.02900
Br1747     Br  0.62058774  0.57127439  0.62376415    -0.01400
Br1748     Br  0.69459969  0.62545825  0.67879443    -0.01500
Br1749     Br  0.67139876  0.48214477  0.55872769    -0.01400
Br1750     Br  0.72814117  0.51402109  0.65127814    -0.01400
C1751       C  0.68884283  0.56871872  0.86644952    -0.02500
C1752       C  0.72441806  0.58037148  0.87566014     0.07100
C1753       C  0.73617506  0.58173889  0.92837016    -0.02700
C1754       C  0.71295266  0.57361656  0.97253459    -0.02700
C1755       C  0.67514742  0.55709598  0.96509434     0.07300
C1756       C  0.66441254  0.55674232  0.90971163    -0.02900
Br1757     Br  0.61635299  0.53820082  0.88831987    -0.01400
Br1758     Br  0.67301871  0.56607502  0.79280727    -0.01500
Br1759     Br  0.73837779  0.60025711  0.03369090    -0.01400
Br1760     Br  0.78613773  0.59996446  0.93966102    -0.01400
C1761       C  0.64701551  0.60146503  0.50260324    -0.02500
C1762       C  0.62700162  0.56370793  0.49979493     0.07100
C1763       C  0.58995255  0.55080977  0.49791503    -0.02700
C1764       C  0.57522878  0.57191954  0.51263669    -0.02700
C1765       C  0.59510430  0.61165464  0.01909787     0.07300
C1766       C  0.63182690  0.62195996  0.51748056    -0.02900
Br1767     Br  0.65948103  0.65366807  0.57318802    -0.01400
Br1768     Br  0.69442718  0.63088977  0.47704570    -0.01500
Br1769     Br  0.53220425  0.54738272  0.06336710    -0.01400
Br1770     Br  0.55579347  0.50732204  0.46639702    -0.01400
C1771       C  0.60362150  0.87189706  0.95034839    -0.02500
C1772       C  0.56715056  0.86380867  0.95226984     0.07100
C1773       C  0.54581683  0.84166936  0.90922718    -0.02700
C1774       C  0.56118512  0.83477703  0.86423509    -0.02700
C1775       C  0.59616291  0.84223186  0.86488344     0.07300
C1776       C  0.61674731  0.85952887  0.90923034    -0.02900
Br1777     Br  0.66374102  0.86608450  0.91379422    -0.01400
Br1778     Br  0.63775345  0.90458443  0.49609494    -0.01500
Br1779     Br  0.53452586  0.81637735  0.79902436    -0.01400
Br1780     Br  0.49554479  0.81268972  0.91050703    -0.01400
C1781       C  0.59335067  0.83001708  0.58003691    -0.02500
C1782       C  0.60353208  0.85016768  0.62582742     0.07100
C1783       C  0.59308773  0.87524010  0.63250962    -0.02700
C1784       C  0.57129679  0.87941876  0.59409339    -0.02700
C1785       C  0.56444632  0.86293939  0.54290058     0.07300
C1786       C  0.57244803  0.83435842  0.54078867    -0.02900
Br1787     Br  0.54989735  0.79469307  0.49348963    -0.01400
Br1788     Br  0.60898791  0.79628648  0.57055938    -0.01500
Br1789     Br  0.53903425  0.89091495  0.62693395    -0.01400
Br1790     Br  0.60601537  0.90140111  0.69805880    -0.01400
C1791       C  0.56330258  0.93985870  0.52379501    -0.02500
C1792       C  0.57077066  0.91955468  0.48736482     0.07100
C1793       C  0.59941043  0.94253733  0.95482739    -0.02700
C1794       C  0.62451891  0.97844203  0.96286527    -0.02700
C1795       C  0.61922595  0.49725547  0.49968728     0.07300
C1796       C  0.58850397  0.97542322  0.53521483    -0.02900
Br1797     Br  0.58621686  0.48893973  0.60748977    -0.01400
Br1798     Br  0.51516472  0.92828493  0.53841310    -0.01500
Br1799     Br  0.66963508  0.49050264  0.92928016    -0.01400
Br1800     Br  0.59905720  0.92891952  0.88043372    -0.01400
C1801       C  0.88429645  0.75476307  0.85875580    -0.02500
C1802       C  0.85118867  0.72415145  0.86344497     0.07100
C1803       C  0.82873567  0.72176531  0.90561823    -0.02700
C1804       C  0.84021434  0.74803032  0.94489692    -0.02700
C1805       C  0.87422213  0.78003925  0.94086243     0.07300
C1806       C  0.89322289  0.78362771  0.89195430    -0.02900
Br1807     Br  0.91875777  0.82721707  0.85237501    -0.01400
Br1808     Br  0.91724987  0.75980405  0.80256092    -0.01500
Br1809     Br  0.80374678  0.74203185  0.99505822    -0.01400
Br1810     Br  0.78120524  0.68241306  0.90960899    -0.01400
C1811       C  0.88273124  0.72878475  0.59252467    -0.02500
C1812       C  0.85897034  0.72616452  0.63277362     0.07100
C1813       C  0.84799224  0.75157193  0.63207648    -0.02700
C1814       C  0.85645409  0.77630636  0.58841342    -0.02700
C1815       C  0.87976912  0.77890110  0.54532899     0.07300
C1816       C  0.89154053  0.75303945  0.54830531    -0.02900
Br1817     Br  0.92166943  0.74987948  0.49360467    -0.01400
Br1818     Br  0.90741564  0.70228081  0.60026253    -0.01500
Br1819     Br  0.82794257  0.79883429  0.58725955    -0.01400
Br1820     Br  0.82400267  0.75530383  0.69501495    -0.01400
C1821       C  0.95412978  0.86027894  0.95803323    -0.02500
C1822       C  0.93533125  0.83020643  0.49998712     0.07100
C1823       C  0.95562639  0.82508836  0.54208946    -0.02700
C1824       C  0.48646898  0.83370168  0.53059197    -0.02700
C1825       C  0.50986813  0.85953803  0.49104214     0.07300
C1826       C  0.49324029  0.87193656  0.96503829    -0.02900
Br1827     Br  0.51739886  0.90338815  0.90461513    -0.01400
Br1828     Br  0.93838960  0.89160245  0.92674575    -0.01500
Br1829     Br  0.49635660  0.80281338  0.57659728    -0.01400
Br1830     Br  0.94119650  0.81301601  0.61858503    -0.01400
C1831       C  0.85172347  0.83521556  0.94275570    -0.02500
C1832       C  0.87624971  0.83286890  0.49249170     0.07100
C1833       C  0.88802182  0.86171302  0.52869853    -0.02700
C1834       C  0.87762939  0.88777204  0.52382832    -0.02700
C1835       C  0.84860743  0.88290115  0.49197580     0.07300
C1836       C  0.84504416  0.86385048  0.93632844    -0.02900
Br1837     Br  0.83783504  0.87466447  0.86124113    -0.01400
Br1838     Br  0.82658500  0.80062280  0.88821089    -0.01500
Br1839     Br  0.91096518  0.93353916  0.55110188    -0.01400
Br1840     Br  0.91857102  0.86866374  0.58842484    -0.01400
loop_ 
_geom_bond_atom_site_label_1 
_geom_bond_atom_site_label_2 
_geom_bond_distance 
_geom_bond_site_symmetry_2 
_ccdc_geom_bond_type 
C1          C205   1.605   1_556  S
C1          C212   1.658       .  S
C1          C222   1.622       .  S
C1          C425   1.628       .  S
C2          C175   1.624   1_556  S
C2          C182   1.643       .  S
C2          C215   1.613       .  S
C2          C392   1.589       .  S
C3          C135   1.611       .  S
C3          C152   1.635       .  S
C3          C185   1.646   1_545  S
C3          C375   1.603   1_554  S
C4          C115   1.612       .  S
C4          C122   1.608       .  S
C4          C155   1.634       .  S
C4          C335   1.594       .  S
C5           C85   1.637       .  S
C5           C92   1.608       .  S
C5          C125   1.606       .  S
C5          C302   1.579   1_554  S
C6           C52   1.607   1_556  S
C6           C95   1.617       .  S
C6          C225   1.643       .  S
C6          C295   1.609       .  S
O7           C22   1.258       .  A
O7          Al15   1.891       .  S
C8           O18   1.256       .  A
C8            O9   1.256       .  A
C8          C102   1.462       .  S
O9          Al11   1.892       .  S
O10          C12   1.253       .  A
O10         Al11   1.879       .  S
Al11         O19   1.886       .  S
Al11         O21   1.901       .  S
Al11         O20   1.810       .  S
C12          O25   1.265       .  A
C12          C55   1.481       .  S
O13          C23   1.259       .  A
O13         Al15   1.907       .  S
O14          C27   1.258       .  A
O14         Al24   1.893       .  S
Al15         O28   1.926       .  S
Al15         O25   1.927       .  S
Al15         O20   1.801       .  S
O16          C23   1.264       .  A
O16         Al24   1.926       .  S
O17          C26   1.264       .  A
O17         Al24   1.923       .  S
O18         Al24   1.885       .  S
O19          C26   1.254       .  A
O20         Al24   1.791       .  S
O21          C22   1.258       .  A
C22          C62   1.476       .  S
C23         C172   1.492       .  S
C26         C112   1.480       .  S
C27          O28   1.263       .  A
C27         C165   1.487       .  S
O29          C44   1.259       .  A
O29         Al37   1.892       .  S
C30          O40   1.264       .  A
C30          O31   1.267       .  A
C30         C142   1.475       .  S
O31         Al33   1.918       .  S
O32          C34   1.264       .  A
O32         Al33   1.919       .  S
Al33         O41   1.916       .  S
Al33         O43   1.904       .  S
Al33         O42   1.785       .  S
C34          O47   1.257       .  A
C34         C192   1.506       .  S
O35          C45   1.250       .  A
O35         Al37   1.877       .  S
O36          C49   1.264       .  A
O36         Al46   1.890       .  S
Al37         O50   1.940       .  S
Al37         O47   1.898       .  S
Al37         O42   1.785       .  S
O38          C45   1.252       .  A
O38         Al46   1.896       .  S
O39          C48   1.252       .  A
O39         Al46   1.896       .  S
O40         Al46   1.893       .  S
O41          C48   1.261       .  A
O42         Al46   1.801       .  S
O43          C44   1.259       .  A
C44         C202   1.499       .  S
C45          C75   1.471       .  S
C48         C132   1.491       .  S
C49          O50   1.272       .  A
C49          C82   1.479       .  S
C51          C52   1.444       .  A
C51          C56   1.419       .  A
C51         Br58   1.918       .  S
C52          C53   1.450       .  A
C53          C54   1.405       .  A
C53        Br290   1.936       .  S
C54          C55   1.396       .  A
C54         Br59   1.934       .  S
C55          C56   1.402       .  A
C56         Br57   1.943       .  S
Br60        C283   1.932       .  S
C61          C62   1.391       .  A
C61          C66   1.414       .  A
C61         Br68   1.948       .  S
C62          C63   1.396       .  A
C63          C64   1.409       .  A
C63         Br70   1.926       .  S
C64          C65   1.454       .  A
C64         Br69   1.949       .  S
C65         C236   1.610       .  S
C65          C66   1.454       .  A
C66         Br67   1.903       .  S
C71          C72   1.454       .  A
C71          C76   1.401       .  A
C71         Br78   1.955       .  S
C72         C235   1.576       .  S
C72          C73   1.447       .  A
C73          C74   1.414       .  A
C73         Br80   1.933       .  S
C74          C75   1.407       .  A
C74         Br79   1.946       .  S
C75          C76   1.399       .  A
C76         Br77   1.946       .  S
C81          C82   1.385       .  A
C81          C86   1.406       .  A
C81         Br88   1.939       .  S
C82          C83   1.399       .  A
C83          C84   1.418       .  A
C83         Br90   1.935       .  S
C84          C85   1.447       .  A
C84         Br89   1.933       .  S
C85          C86   1.469       .  A
C86        Br317   1.956   1_554  S
Br87        C316   1.953       .  S
C91          C96   1.397       .  A
C91         C552   1.404       .  A
C91        Br558   1.915       .  S
C92         C551   1.406       .  A
C92         C783   1.448   1_554  A
C93          C94   1.421       .  A
C93         C782   1.443       .  A
C93        Br560   1.942       .  S
C94         C325   1.434       .  A
C94         Br99   1.927       .  S
C95          C96   1.459   1_556  A
C95         C324   1.439       .  A
C96         Br97   1.938       .  S
Br98        C551   1.916       .  S
Br100       C553   1.956       .  S
C101        C102   1.391       .  A
C101        C106   1.410       .  A
C101       Br108   1.941       .  S
C102        C103   1.393       .  A
C103        C104   1.412       .  A
C103       Br110   1.940       .  S
C104        C105   1.454       .  A
C104       Br109   1.937   1_554  S
C105        C234   1.599       .  S
C105        C106   1.436       .  A
C106       Br107   1.908       .  S
C111        C112   1.391       .  A
C111        C116   1.390       .  A
C111       Br118   1.928       .  S
C112        C113   1.412       .  A
C113        C114   1.431       .  A
C113       Br120   1.934       .  S
C114        C115   1.445       .  A
C114       Br119   1.917       .  S
C115        C116   1.433       .  A
C116       Br117   1.907       .  S
C121        C352   1.459       .  A
C121       C1046   1.429   1_455  A
C121       Br128   1.941       .  S
C122        C123   1.416       .  A
C122        C351   1.448       .  A
C123       C1044   1.409   1_455  A
C123       Br130   1.925       .  S
C124       C1043   1.425       .  A
C124        C355   1.447       .  A
C124       Br129   1.932       .  S
C125        C126   1.430       .  A
C125        C354   1.441   1_554  A
C126       C1041   1.425       .  A
C126       Br127   1.939       .  S
C131        C132   1.405       .  A
C131        C136   1.408       .  A
C131       Br138   1.940       .  S
C132        C133   1.417       .  A
C133        C134   1.421       .  A
C133       Br140   1.939       .  S
C134        C135   1.437       .  A
C134       Br139   1.918   1_545  S
C135        C136   1.441       .  A
C136       Br137   1.929       .  S
C141        C142   1.398       .  A
C141        C146   1.412       .  A
C141       Br148   1.937       .  S
C142        C143   1.394       .  A
C143        C144   1.411       .  A
C143       Br150   1.940       .  S
C144        C145   1.454       .  A
C144       Br149   1.933       .  S
C145        C233   1.597       .  S
C145        C146   1.446       .  A
C146       Br147   1.923       .  S
C151        C152   1.446       .  A
C151        C156   1.414       .  A
C151       Br158   1.931   1_554  S
C152        C153   1.439       .  A
C153        C154   1.428       .  A
C153       Br160   1.928   1_554  S
C154        C385   1.438       .  A
C154       Br389   1.928       .  S
C155        C384   1.441       .  A
C155        C386   1.424       .  A
C156        C385   1.431       .  A
C156       Br157   1.937       .  S
Br159       C384   1.921       .  S
C161        C162   1.462       .  A
C161        C166   1.409       .  A
C161       Br398   1.950       .  S
C162        C232   1.605       .  S
C162        C163   1.446       .  A
C163        C164   1.422       .  A
C163       Br170   1.927   1_455  S
C164        C165   1.405       .  A
C164       Br169   1.938       .  S
C165        C166   1.396       .  A
C166       Br167   1.941       .  S
Br168       C391   1.949       .  S
C171        C172   1.398       .  A
C171        C176   1.414       .  A
C171       Br178   1.928       .  S
C172        C173   1.400       .  A
C173        C174   1.416       .  A
C173       Br180   1.932       .  S
C174        C175   1.433       .  A
C174       Br179   1.911       .  S
C175        C176   1.463       .  A
C176       Br177   1.955   1_554  S
C181        C182   1.433   1_554  A
C181        C186   1.432       .  A
C181       Br188   1.943       .  S
C182        C413   1.446       .  A
C183        C184   1.406       .  A
C183        C412   1.445       .  A
C183       Br190   1.963       .  S
C184        C875   1.440       .  A
C184       Br649   1.949       .  S
C185        C874   1.450   1_554  A
C185        C646   1.439       .  A
C186        C645   1.439   1_554  A
C186       Br647   1.927       .  S
Br187       C646   1.915       .  S
Br189       C644   1.954       .  S
C191        C192   1.410       .  A
C191        C196   1.420       .  A
C191       Br198   1.945       .  S
C192        C193   1.405       .  A
C193        C194   1.419       .  A
C193       Br200   1.938       .  S
C194        C195   1.462       .  A
C194       Br199   1.945       .  S
C195        C231   1.624       .  S
C195        C196   1.440       .  A
C196       Br197   1.909       .  S
C201        C202   1.405       .  A
C201        C206   1.412       .  A
C201       Br208   1.942       .  S
C202        C203   1.411       .  A
C203        C204   1.420       .  A
C203       Br210   1.946       .  S
C204        C205   1.451       .  A
C204       Br209   1.942       .  S
C205        C206   1.458       .  A
C206       Br207   1.956   1_554  S
C211        C442   1.441       .  A
C211       C1136   1.436       .  A
C211       Br218   1.947       .  S
C212        C213   1.445   1_556  A
C212        C441   1.446       .  A
C213       C1134   1.409       .  A
C213       Br220   1.964       .  S
C214        C215   1.438   1_654  A
C214       C1133   1.407       .  A
C214       Br219   1.940       .  S
C215        C446   1.442   1_455  A
C216       C1131   1.432       .  A
C216        C445   1.443   1_655  A
C216       Br217   1.923   1_655  S
C221        C226   1.421       .  A
C221        C452   1.454       .  A
C221       Br228   1.952       .  S
C222        C223   1.442   1_556  A
C222        C451   1.455       .  A
C223        C224   1.421       .  A
C223       Br230   1.924       .  S
C224        C225   1.415   1_554  A
C224       Br229   1.928       .  S
C225        C456   1.447       .  A
C226        C455   1.445       .  A
C226       Br227   1.972       .  S
C231        C435   1.601       .  S
C231        C442   1.651       .  S
C231        C452   1.619       .  S
C232        C405   1.615       .  S
C232        C412   1.641       .  S
C232        C445   1.631       .  S
C233        C365   1.610       .  S
C233        C382   1.624       .  S
C233        C415   1.645   1_545  S
C234        C345   1.625   1_554  S
C234        C352   1.629       .  S
C234        C385   1.636       .  S
C235        C315   1.654       .  S
C235        C322   1.611       .  S
C235        C355   1.617       .  S
C236        C282   1.604       .  S
C236        C325   1.612       .  S
C236        C455   1.628       .  S
O237        C252   1.256       .  A
O237       Al245   1.888       .  S
C238        O248   1.257       .  A
C238        O239   1.258       .  A
C238        C332   1.464       .  S
O239       Al241   1.901       .  S
O240        C242   1.258       .  A
O240       Al241   1.892       .  S
Al241       O249   1.913       .  S
Al241       O251   1.911       .  S
Al241       O250   1.800       .  S
C242        O255   1.258       .  A
C242        C285   1.472       .  S
O243        C253   1.254       .  A
O243       Al245   1.891       .  S
O244        C257   1.260       .  A
O244       Al254   1.889       .  S
Al245       O258   1.901       .  S
Al245       O255   1.889       .  S
Al245       O250   1.800       .  S
O246        C253   1.257       .  A
O246       Al254   1.900       .  S
O247        C256   1.262       .  A
O247       Al254   1.923       .  S
O248       Al254   1.885       .  S
O249        C256   1.262       .  A
O250       Al254   1.794       .  S
O251        C252   1.259       .  A
C252        C292   1.486       .  S
C253        C402   1.476       .  S
C256        C342   1.497       .  S
C257        O258   1.260       .  A
C257        C395   1.474       .  S
O259        C274   1.259       .  A
O259       Al267   1.884       .  S
C260        O270   1.268       .  A
C260        O261   1.266       .  A
C260        C372   1.493       .  S
O261       Al263   1.924       .  S
O262        C264   1.266       .  A
O262       Al263   1.926       .  S
Al263       O271   1.921       .  S
Al263       O273   1.914       .  S
Al263       O272   1.788       .  S
C264        O277   1.259       .  A
C264        C422   1.512       .  S
O265        C275   1.251       .  A
O265       Al267   1.869       .  S
O266        C279   1.267       .  A
O266       Al276   1.918       .  S
Al267       O280   1.944       .  S
Al267       O277   1.910       .  S
Al267       O272   1.787       .  S
O268        C275   1.255       .  A
O268       Al276   1.902       .  S
O269        C278   1.254       .  A
O269       Al276   1.896       .  S
O270       Al276   1.915       .  S
O271        C278   1.263       .  A
O272       Al276   1.799       .  S
O273        C274   1.260       .  A
C274        C432   1.500       .  S
C275        C305   1.471       .  S
C278        C362   1.493       .  S
C279        O280   1.270       .  A
C279        C312   1.496       .  S
C281        C282   1.448       .  A
C281        C286   1.418       .  A
C281       Br288   1.916       .  S
C282        C283   1.444       .  A
C283        C284   1.400       .  A
C284        C285   1.396       .  A
C284       Br289   1.935       .  S
C285        C286   1.399       .  A
C286       Br287   1.949       .  S
C291        C292   1.398       .  A
C291        C296   1.418       .  A
C291       Br298   1.943       .  S
C292        C293   1.395       .  A
C293        C294   1.411       .  A
C293       Br300   1.926       .  S
C294        C295   1.456       .  A
C294       Br299   1.951   1_556  S
C295        C296   1.453       .  A
C296       Br297   1.920       .  S
C301        C302   1.454       .  A
C301        C306   1.401       .  A
C301       Br308   1.951   1_556  S
C302        C303   1.448       .  A
C303        C304   1.414       .  A
C303       Br310   1.935       .  S
C304        C305   1.407       .  A
C304       Br309   1.946       .  S
C305        C306   1.396       .  A
C306       Br307   1.947       .  S
C311        C312   1.388       .  A
C311        C316   1.415       .  A
C311       Br318   1.940       .  S
C312        C313   1.402       .  A
C313        C314   1.424       .  A
C313       Br320   1.933       .  S
C314        C315   1.444       .  A
C314       Br319   1.927       .  S
C315        C316   1.472       .  A
C321        C782   1.418       .  A
C321        C326   1.415       .  A
C321       Br788   1.920       .  S
C322        C781   1.401       .  A
C322        C553   1.455       .  A
C323        C552   1.445   1_556  A
C323        C324   1.430       .  A
C323       Br790   1.957       .  S
C324       Br329   1.922       .  S
C325        C326   1.457       .  A
C326       Br327   1.945       .  S
Br328       C781   1.915       .  S
Br330       C783   1.960       .  S
C331        C332   1.391       .  A
C331        C336   1.407       .  A
C331       Br338   1.944       .  S
C332        C333   1.396       .  A
C333        C334   1.412       .  A
C333       Br340   1.936       .  S
C334        C335   1.453       .  A
C334       Br339   1.947       .  S
C335        C336   1.440       .  A
C336       Br337   1.899       .  S
C341        C342   1.396       .  A
C341        C346   1.414       .  A
C341       Br348   1.941       .  S
C342        C343   1.401       .  A
C343        C344   1.428       .  A
C343       Br350   1.942       .  S
C344        C345   1.458       .  A
C344       Br349   1.923       .  S
C345        C346   1.455       .  A
C346       Br347   1.924   1_556  S
C351       C1276   1.436   1_455  A
C351       Br358   1.956       .  S
C352        C353   1.432   1_554  A
C353       C1274   1.408   1_455  A
C353       Br360   1.916       .  S
C354       C1273   1.415       .  A
C354       Br359   1.937       .  S
C355        C356   1.426       .  A
C356       C1271   1.425       .  A
C356       Br357   1.934       .  S
C361        C362   1.406       .  A
C361        C366   1.413       .  A
C361       Br368   1.939       .  S
C362        C363   1.416       .  A
C363        C364   1.419       .  A
C363       Br370   1.942       .  S
C364        C365   1.438       .  A
C364       Br369   1.918   1_545  S
C365        C366   1.445       .  A
C366       Br367   1.936       .  S
C371        C372   1.406       .  A
C371        C376   1.419       .  A
C371       Br378   1.931       .  S
C372        C373   1.397       .  A
C373        C374   1.412       .  A
C373       Br380   1.935       .  S
C374        C375   1.452       .  A
C374       Br379   1.927   1_556  S
C375        C376   1.445       .  A
C376       Br377   1.927       .  S
C381        C382   1.444       .  A
C381        C386   1.406       .  A
C381       Br388   1.926       .  S
C382        C383   1.433       .  A
C383        C384   1.421       .  A
C383       Br390   1.936       .  S
C386       Br387   1.935       .  S
C391        C392   1.456       .  A
C391        C396   1.403       .  A
C392        C393   1.451       .  A
C393        C394   1.415       .  A
C393       Br400   1.935   1_455  S
C394        C395   1.401       .  A
C394       Br399   1.940       .  S
C395        C396   1.395       .  A
C396       Br397   1.938       .  S
C401        C402   1.393       .  A
C401        C406   1.407       .  A
C401       Br408   1.934       .  S
C402        C403   1.397       .  A
C403        C404   1.414       .  A
C403       Br410   1.938       .  S
C404        C405   1.438       .  A
C404       Br409   1.911       .  S
C405        C406   1.463       .  A
C406       Br407   1.952       .  S
C411        C412   1.434       .  A
C411        C416   1.433       .  A
C411       Br418   1.946       .  S
C413        C414   1.411       .  A
C413       Br420   1.956       .  S
C414        C645   1.438       .  A
C414       Br879   1.948       .  S
C415        C644   1.452       .  A
C415        C876   1.440       .  A
C416        C875   1.437       .  A
C416       Br877   1.933       .  S
Br417       C876   1.911       .  S
Br419       C874   1.952       .  S
C421        C422   1.412       .  A
C421        C426   1.422       .  A
C421       Br428   1.942       .  S
C422        C423   1.404       .  A
C423        C424   1.419       .  A
C423       Br430   1.936       .  S
C424        C425   1.462       .  A
C424       Br429   1.945       .  S
C425        C426   1.439       .  A
C426       Br427   1.907       .  S
C431        C432   1.407       .  A
C431        C436   1.414       .  A
C431       Br438   1.943       .  S
C432        C433   1.410       .  A
C433        C434   1.415       .  A
C433       Br440   1.943       .  S
C434        C435   1.448       .  A
C434       Br439   1.940       .  S
C435        C436   1.457       .  A
C436       Br437   1.956       .  S
C441       C1366   1.444       .  A
C441       Br448   1.950       .  S
C442        C443   1.445       .  A
C443       C1364   1.411       .  A
C443       Br450   1.969       .  S
C444       C1363   1.423       .  A
C444        C445   1.451   1_655  A
C444       Br449   1.946       .  S
C446       C1361   1.431       .  A
C446       Br447   1.923   1_655  S
C451        C456   1.428       .  A
C451       Br458   1.951       .  S
C452        C453   1.446       .  A
C453        C454   1.423       .  A
C453       Br460   1.922       .  S
C454        C455   1.419       .  A
C454       Br459   1.950       .  S
C456       Br457   1.966       .  S
C461        C885   1.618       .  S
C461        C665   1.618   1_556  S
C461        C672   1.651   1_556  S
C461        C682   1.636       .  S
C462        C852   1.603       .  S
C462        C635   1.617   1_556  S
C462        C642   1.651       .  S
C462        C675   1.621       .  S
C463        C595   1.611       .  S
C463        C835   1.605   1_554  S
C463        C612   1.637   1_554  S
C463        C645   1.615   1_554  S
C464        C795   1.596       .  S
C464        C575   1.620       .  S
C464        C582   1.625       .  S
C464        C615   1.631       .  S
C465        C762   1.590   1_554  S
C465        C545   1.627       .  S
C465        C552   1.601       .  S
C465        C585   1.606       .  S
C466        C512   1.603   1_556  S
C466        C755   1.609       .  S
C466        C555   1.621   1_556  S
C466        C685   1.643       .  S
O467        C482   1.253       .  A
O467       Al475   1.878       .  S
C468        O478   1.262       .  A
C468        O469   1.257       .  A
C468        C562   1.468       .  S
O469       Al471   1.896       .  S
O470        C472   1.260       .  A
O470       Al471   1.903       .  S
Al471       O479   1.911       .  S
Al471       O481   1.904       .  S
Al471       O480   1.806       .  S
C472        O485   1.259       .  A
C472        C515   1.483       .  S
O473        C483   1.252       .  A
O473       Al475   1.890       .  S
O474        C487   1.266       .  A
O474       Al484   1.918       .  S
Al475       O488   1.907       .  S
Al475       O485   1.892       .  S
Al475       O480   1.806       .  S
O476        C483   1.260       .  A
O476       Al484   1.922       .  S
O477        C486   1.263       .  A
O477       Al484   1.928       .  S
O478       Al484   1.902       .  S
O479        C486   1.261       .  A
O480       Al484   1.796       .  S
O481        C482   1.258       .  A
C482        C522   1.479       .  S
C483        C632   1.487       .  S
C486        C572   1.501       .  S
C487        O488   1.261       .  A
C487        C625   1.489       .  S
O489        C504   1.266       .  A
O489       Al497   1.942       .  S
C490        O500   1.262       .  A
C490        O491   1.256       .  A
C490        C602   1.470       .  S
O491       Al493   1.887       .  S
O492        C494   1.268       .  A
O492       Al493   1.939       .  S
Al493       O501   1.924       .  S
Al493       O503   1.914       .  S
Al493       O502   1.780       .  S
C494        O507   1.261       .  A
C494        C652   1.498       .  S
O495        C505   1.260       .  A
O495       Al497   1.898       .  S
O496        C509   1.257       .  A
O496       Al506   1.913       .  S
Al497       O510   1.896       .  S
Al497       O507   1.910       .  S
Al497       O502   1.773       .  S
O498        C505   1.256       .  A
O498       Al506   1.885       .  S
O499        C508   1.256       .  A
O499       Al506   1.885       .  S
O500       Al506   1.917       .  S
O501        C508   1.265       .  A
O502       Al506   1.792       .  S
O503        C504   1.262       .  A
C504        C662   1.506       .  S
C505        C535   1.500       .  S
C508        C592   1.488       .  S
C509        O510   1.264       .  A
C509        C542   1.472       .  S
C511        C512   1.442       .  A
C511        C516   1.420       .  A
C511       Br518   1.917       .  S
C512        C513   1.443       .  A
C513        C514   1.400       .  A
C513       Br750   1.932       .  S
C514        C515   1.400       .  A
C514       Br519   1.937       .  S
C515        C516   1.405       .  A
C516       Br517   1.942       .  S
Br520       C743   1.937       .  S
C521        C522   1.397       .  A
C521        C526   1.417       .  A
C521       Br528   1.941       .  S
C522        C523   1.392       .  A
C523        C524   1.407       .  A
C523       Br530   1.925       .  S
C524        C525   1.455       .  A
C524       Br529   1.942       .  S
C525        C696   1.608       .  S
C525        C526   1.455       .  A
C526       Br527   1.917       .  S
C531        C532   1.451       .  A
C531        C536   1.412       .  A
C531       Br538   1.956       .  S
C532        C695   1.590       .  S
C532        C533   1.437       .  A
C533        C534   1.412       .  A
C533       Br540   1.926       .  S
C534        C535   1.419       .  A
C534       Br539   1.956       .  S
C535        C536   1.416       .  A
C536       Br537   1.950       .  S
C541        C542   1.383       .  A
C541        C546   1.400       .  A
C541       Br548   1.940       .  S
C542        C543   1.397       .  A
C543        C544   1.415       .  A
C543       Br550   1.934       .  S
C544        C545   1.445       .  A
C544       Br549   1.934       .  S
C545        C546   1.463       .  A
C546       Br777   1.952   1_554  S
Br547       C776   1.953       .  S
C551        C556   1.409   1_545  A
C553        C554   1.432   1_545  A
C554        C785   1.435       .  A
C554       Br559   1.934       .  S
C555        C784   1.438   1_554  A
C555        C556   1.461       .  A
C556       Br557   1.941       .  S
C561        C562   1.397       .  A
C561        C566   1.417       .  A
C561       Br568   1.934       .  S
C562        C563   1.388       .  A
C563        C564   1.408       .  A
C563       Br570   1.944       .  S
C564        C565   1.456       .  A
C564       Br569   1.929   1_554  S
C565        C694   1.607       .  S
C565        C566   1.441       .  A
C566       Br567   1.910       .  S
C571        C572   1.399       .  A
C571        C576   1.416       .  A
C571       Br578   1.944       .  S
C572        C573   1.408       .  A
C573        C574   1.425       .  A
C573       Br580   1.938       .  S
C574        C575   1.454       .  A
C574       Br579   1.932       .  S
C575        C576   1.456       .  A
C576       Br577   1.926       .  S
C581        C812   1.451       .  A
C581       C1506   1.423   1_455  A
C581       Br588   1.942       .  S
C582        C811   1.456       .  A
C582        C583   1.433       .  A
C583       C1504   1.412   1_455  A
C583       Br590   1.920       .  S
C584       C1503   1.409       .  A
C584        C815   1.443       .  A
C584       Br589   1.928       .  S
C585        C814   1.440   1_554  A
C585        C586   1.433       .  A
C586       C1501   1.424       .  A
C586       Br587   1.934       .  S
C591        C592   1.400       .  A
C591        C596   1.385       .  A
C591       Br598   1.930       .  S
C592        C593   1.421       .  A
C593        C594   1.430       .  A
C593       Br600   1.939       .  S
C594        C595   1.445       .  A
C594       Br599   1.926       .  S
C595        C596   1.418       .  A
C596       Br597   1.916       .  S
C601        C602   1.395       .  A
C601        C606   1.411       .  A
C601       Br608   1.938       .  S
C602        C603   1.393       .  A
C603        C604   1.410       .  A
C603       Br610   1.937       .  S
C604        C605   1.450       .  A
C604       Br609   1.926       .  S
C605        C693   1.591       .  S
C605        C606   1.445       .  A
C606       Br607   1.920       .  S
C611        C612   1.446       .  A
C611        C616   1.423   1_556  A
C611       Br618   1.949       .  S
C612        C613   1.438       .  A
C613        C614   1.425   1_556  A
C613       Br620   1.941       .  S
C614        C845   1.443       .  A
C614       Br849   1.939       .  S
C615        C844   1.441       .  A
C615        C846   1.435       .  A
C616        C845   1.436       .  A
C616       Br617   1.934       .  S
Br619       C844   1.936       .  S
C621        C622   1.453       .  A
C621        C626   1.408       .  A
C621       Br858   1.952       .  S
C622        C692   1.598       .  S
C622        C623   1.454       .  A
C623        C624   1.419       .  A
C623       Br630   1.939   1_455  S
C624        C625   1.401       .  A
C624       Br629   1.938       .  S
C625        C626   1.401       .  A
C626       Br627   1.932       .  S
Br628       C851   1.948       .  S
C631        C632   1.397       .  A
C631        C636   1.415       .  A
C631       Br638   1.929       .  S
C632        C633   1.400       .  A
C633        C634   1.410       .  A
C633       Br640   1.933       .  S
C634        C635   1.433       .  A
C634       Br639   1.913       .  S
C635        C636   1.464       .  A
C636       Br637   1.955   1_554  S
C641        C642   1.431   1_554  A
C641        C646   1.434       .  A
C641       Br648   1.944       .  S
C642        C873   1.444       .  A
C643        C872   1.446       .  A
C643        C644   1.425       .  A
C643       Br650   1.953       .  S
C651        C652   1.403       .  A
C651        C656   1.423       .  A
C651       Br658   1.943       .  S
C652        C653   1.401       .  A
C653        C654   1.412       .  A
C653       Br660   1.931       .  S
C654        C655   1.445       .  A
C654       Br659   1.928       .  S
C655        C691   1.622       .  S
C655        C656   1.453       .  A
C656       Br657   1.920       .  S
C661        C662   1.404       .  A
C661        C666   1.420       .  A
C661       Br668   1.938       .  S
C662        C663   1.408       .  A
C663        C664   1.427       .  A
C663       Br670   1.944       .  S
C664        C665   1.454       .  A
C664       Br669   1.931       .  S
C665        C666   1.459       .  A
C666       Br667   1.946   1_554  S
C671        C902   1.431       .  A
C671       C1596   1.431       .  A
C671       Br678   1.952       .  S
C672        C901   1.438   1_554  A
C672        C673   1.463       .  A
C673       C1594   1.442       .  A
C673       Br680   1.986       .  S
C674       C1593   1.406       .  A
C674        C675   1.443   1_654  A
C674       Br679   1.943       .  S
C675        C906   1.443   1_455  A
C676       C1591   1.426       .  A
C676        C905   1.436   1_655  A
C676       Br677   1.926   1_655  S
C681        C912   1.453       .  A
C681        C686   1.446       .  A
C681       Br688   1.959       .  S
C682        C911   1.463       .  A
C682        C683   1.445   1_556  A
C683        C684   1.419       .  A
C683       Br690   1.924       .  S
C684        C685   1.414   1_554  A
C684       Br689   1.936       .  S
C685        C916   1.456       .  A
C686        C915   1.462       .  A
C686       Br687   1.962       .  S
C691        C895   1.617       .  S
C691        C902   1.635       .  S
C691        C912   1.631       .  S
C692        C865   1.613       .  S
C692        C872   1.651       .  S
C692        C905   1.614       .  S
C693        C825   1.610       .  S
C693        C842   1.639       .  S
C693        C875   1.612       .  S
C694        C805   1.615   1_554  S
C694        C812   1.625       .  S
C694        C845   1.635       .  S
C695        C775   1.624       .  S
C695        C782   1.609       .  S
C695        C815   1.617       .  S
C696        C742   1.597       .  S
C696        C785   1.616       .  S
C696        C915   1.651       .  S
O697        C712   1.254       .  A
O697       Al705   1.883       .  S
C698        O708   1.260       .  A
C698        O699   1.253       .  A
C698        C792   1.453       .  S
O699       Al701   1.878       .  S
O700        C702   1.258       .  A
O700       Al701   1.897       .  S
Al701       O709   1.908       .  S
Al701       O711   1.903       .  S
Al701       O710   1.806       .  S
C702        O715   1.262       .  A
C702        C745   1.483       .  S
O703        C713   1.254       .  A
O703       Al705   1.891       .  S
O704        C717   1.267       .  A
O704       Al714   1.922       .  S
Al705       O718   1.905       .  S
Al705       O715   1.908       .  S
Al705       O710   1.797       .  S
O706        C713   1.258       .  A
O706       Al714   1.910       .  S
O707        C716   1.261       .  A
O707       Al714   1.911       .  S
O708       Al714   1.891       .  S
O709        C716   1.263       .  A
O710       Al714   1.790       .  S
O711        C712   1.258       .  A
C712        C752   1.481       .  S
C713        C862   1.484       .  S
C716        C802   1.493       .  S
C717        O718   1.261       .  A
C717        C855   1.490       .  S
O719        C734   1.265       .  A
O719       Al727   1.940       .  S
C720        O730   1.259       .  A
C720        O721   1.255       .  A
C720        C832   1.474       .  S
O721       Al723   1.890       .  S
O722        C724   1.268       .  A
O722       Al723   1.938       .  S
Al723       O731   1.921       .  S
Al723       O733   1.907       .  S
Al723       O732   1.788       .  S
C724        O737   1.260       .  A
C724        C882   1.497       .  S
O725        C735   1.253       .  A
O725       Al727   1.909       .  S
O726        C739   1.259       .  A
O726       Al736   1.916       .  S
Al727       O740   1.890       .  S
Al727       O737   1.903       .  S
Al727       O732   1.786       .  S
O728        C735   1.262       .  A
O728       Al736   1.887       .  S
O729        C738   1.261       .  A
O729       Al736   1.901       .  S
O730       Al736   1.911       .  S
O731        C738   1.266       .  A
O732       Al736   1.792       .  S
O733        C734   1.259       .  A
C734        C892   1.500       .  S
C735        C765   1.508       .  S
C738        C822   1.490       .  S
C739        O740   1.263       .  A
C739        C772   1.469       .  S
C741        C742   1.437       .  A
C741        C746   1.416       .  A
C741       Br748   1.919       .  S
C742        C743   1.443       .  A
C743        C744   1.400       .  A
C744        C745   1.401       .  A
C744       Br749   1.931       .  S
C745        C746   1.404       .  A
C746       Br747   1.937       .  S
C751        C752   1.395       .  A
C751        C756   1.418       .  A
C751       Br758   1.946       .  S
C752        C753   1.393       .  A
C753        C754   1.408       .  A
C753       Br760   1.918       .  S
C754        C755   1.455       .  A
C754       Br759   1.947   1_556  S
C755        C756   1.454       .  A
C756       Br757   1.906       .  S
C761        C762   1.452       .  A
C761        C766   1.408       .  A
C761       Br768   1.954       .  S
C762        C763   1.444       .  A
C763        C764   1.422       .  A
C763       Br770   1.938       .  S
C764        C765   1.427       .  A
C764       Br769   1.952       .  S
C765        C766   1.412       .  A
C766       Br767   1.953       .  S
C771        C772   1.381       .  A
C771        C776   1.398       .  A
C771       Br778   1.939       .  S
C772        C773   1.399       .  A
C773        C774   1.415       .  A
C773       Br780   1.928       .  S
C774        C775   1.440       .  A
C774       Br779   1.937       .  S
C775        C776   1.463       .  A
C781        C786   1.403   1_545  A
C783        C784   1.428   1_545  A
C784       Br789   1.926       .  S
C785        C786   1.461       .  A
C786       Br787   1.939       .  S
C791        C792   1.393       .  A
C791        C796   1.410       .  A
C791       Br798   1.938       .  S
C792        C793   1.386       .  A
C793        C794   1.405       .  A
C793       Br800   1.942       .  S
C794        C795   1.456       .  A
C794       Br799   1.937       .  S
C795        C796   1.439       .  A
C796       Br797   1.910       .  S
C801        C802   1.397       .  A
C801        C806   1.406       .  A
C801       Br808   1.948       .  S
C802        C803   1.409       .  A
C803        C804   1.426       .  A
C803       Br810   1.941       .  S
C804        C805   1.456       .  A
C804       Br809   1.934       .  S
C805        C806   1.453       .  A
C806       Br807   1.921       .  S
C811       C1736   1.424   1_455  A
C811       Br818   1.933       .  S
C812        C813   1.436   1_554  A
C813       C1734   1.423   1_455  A
C813       Br820   1.927       .  S
C814       C1733   1.411       .  A
C814       Br819   1.934       .  S
C815        C816   1.442       .  A
C816       C1731   1.437       .  A
C816       Br817   1.927       .  S
C821        C822   1.399       .  A
C821        C826   1.386       .  A
C821       Br828   1.925       .  S
C822        C823   1.420       .  A
C823        C824   1.435       .  A
C823       Br830   1.933       .  S
C824        C825   1.448       .  A
C824       Br829   1.924       .  S
C825        C826   1.411       .  A
C826       Br827   1.915       .  S
C831        C832   1.394       .  A
C831        C836   1.413       .  A
C831       Br838   1.938       .  S
C832        C833   1.392       .  A
C833        C834   1.414       .  A
C833       Br840   1.942       .  S
C834        C835   1.455       .  A
C834       Br839   1.920   1_556  S
C835        C836   1.446       .  A
C836       Br837   1.918       .  S
C841        C842   1.445       .  A
C841        C846   1.419       .  A
C841       Br848   1.947       .  S
C842        C843   1.436       .  A
C843        C844   1.422       .  A
C843       Br850   1.938       .  S
C846       Br847   1.936       .  S
C851        C852   1.457       .  A
C851        C856   1.410       .  A
C852        C853   1.453       .  A
C853        C854   1.421       .  A
C853       Br860   1.931   1_455  S
C854        C855   1.402       .  A
C854       Br859   1.939       .  S
C855        C856   1.399       .  A
C856       Br857   1.938       .  S
C861        C862   1.397       .  A
C861        C866   1.411       .  A
C861       Br868   1.929       .  S
C862        C863   1.399       .  A
C863        C864   1.412       .  A
C863       Br870   1.935       .  S
C864        C865   1.435       .  A
C864       Br869   1.914       .  S
C865        C866   1.461       .  A
C866       Br867   1.951       .  S
C871        C872   1.427       .  A
C871        C876   1.429       .  A
C871       Br878   1.946       .  S
C873        C874   1.421       .  A
C873       Br880   1.953       .  S
C881        C882   1.404       .  A
C881        C886   1.421       .  A
C881       Br888   1.943       .  S
C882        C883   1.402       .  A
C883        C884   1.413       .  A
C883       Br890   1.933       .  S
C884        C885   1.452       .  A
C884       Br889   1.937       .  S
C885        C886   1.448       .  A
C886       Br887   1.918       .  S
C891        C892   1.398       .  A
C891        C896   1.415       .  A
C891       Br898   1.931       .  S
C892        C893   1.404       .  A
C893        C894   1.425       .  A
C893       Br900   1.940       .  S
C894        C895   1.454       .  A
C894       Br899   1.934       .  S
C895        C896   1.458       .  A
C896       Br897   1.947       .  S
C901       C1826   1.428       .  A
C901       Br908   1.956       .  S
C902        C903   1.447       .  A
C903       C1824   1.418       .  A
C903       Br910   1.971       .  S
C904       C1823   1.416       .  A
C904        C905   1.449   1_655  A
C904       Br909   1.949   1_655  S
C906       C1821   1.438       .  A
C906       Br907   1.927   1_655  S
C911        C916   1.443       .  A
C911       Br918   1.963       .  S
C912        C913   1.437       .  A
C913        C914   1.416       .  A
C913       Br920   1.918       .  S
C914        C915   1.420       .  A
C914       Br919   1.928       .  S
C916       Br917   1.975       .  S
C921       C1345   1.628       .  S
C921       C1125   1.594   1_556  S
C921       C1132   1.647   1_556  S
C921       C1142   1.627       .  S
C922       C1312   1.600       .  S
C922       C1095   1.616   1_556  S
C922       C1102   1.651       .  S
C922       C1135   1.631       .  S
C923       C1055   1.619       .  S
C923       C1295   1.600   1_554  S
C923       C1072   1.631       .  S
C923       C1105   1.640   1_545  S
C924       C1255   1.596       .  S
C924       C1035   1.619       .  S
C924       C1042   1.635       .  S
C924       C1075   1.640       .  S
C925       C1222   1.589   1_554  S
C925       C1005   1.629       .  S
C925       C1012   1.608       .  S
C925       C1045   1.608       .  S
C926        C972   1.602   1_556  S
C926       C1215   1.609       .  S
C926       C1015   1.614       .  S
C926       C1145   1.640       .  S
O927        C942   1.256       .  A
O927       Al935   1.888       .  S
C928        O938   1.257       .  A
C928        O929   1.258       .  A
C928       C1022   1.458       .  S
O929       Al931   1.899       .  S
O930        C932   1.256       .  A
O930       Al931   1.892       .  S
Al931       O939   1.912       .  S
Al931       O941   1.914       .  S
Al931       O940   1.803       .  S
C932        O945   1.263       .  A
C932        C975   1.484       .  S
O933        C943   1.255       .  A
O933       Al935   1.898       .  S
O934        C947   1.264       .  A
O934       Al944   1.901       .  S
Al935       O948   1.920       .  S
Al935       O945   1.912       .  S
Al935       O940   1.799       .  S
O936        C943   1.258       .  A
O936       Al944   1.910       .  S
O937        C946   1.261       .  A
O937       Al944   1.916       .  S
O938       Al944   1.880       .  S
O939        C946   1.262       .  A
O940       Al944   1.790       .  S
O941        C942   1.261       .  A
C942        C982   1.485       .  S
C943       C1092   1.484       .  S
C946       C1032   1.495       .  S
C947        O948   1.264       .  A
C947       C1085   1.483       .  S
O949        C964   1.260       .  A
O949       Al957   1.902       .  S
C950        O960   1.267       .  A
C950        O951   1.266       .  A
C950       C1062   1.477       .  S
O951       Al953   1.914       .  S
O952        C954   1.261       .  A
O952       Al953   1.909       .  S
Al953       O961   1.923       .  S
Al953       O963   1.887       .  S
Al953       O962   1.784       .  S
C954        O967   1.256       .  A
C954       C1112   1.503       .  S
O955        C965   1.249       .  A
O955       Al957   1.879       .  S
O956        C969   1.269       .  A
O956       Al966   1.900       .  S
Al957       O970   1.936       .  S
Al957       O967   1.895       .  S
Al957       O962   1.785       .  S
O958        C965   1.247       .  A
O958       Al966   1.881       .  S
O959        C968   1.249       .  A
O959       Al966   1.895       .  S
O960       Al966   1.893       .  S
O961        C968   1.261       .  A
O962       Al966   1.798       .  S
O963        C964   1.257       .  A
C964       C1122   1.492       .  S
C965        C995   1.463       .  S
C968       C1052   1.501       .  S
C969        O970   1.272       .  A
C969       C1002   1.480       .  S
C971        C972   1.440       .  A
C971        C976   1.415       .  A
C971       Br978   1.919       .  S
C972        C973   1.446       .  A
C973        C974   1.405       .  A
C973      Br1210   1.933       .  S
C974        C975   1.399       .  A
C974       Br979   1.936       .  S
C975        C976   1.403       .  A
C976       Br977   1.939       .  S
Br980      C1203   1.940       .  S
C981        C982   1.398       .  A
C981        C986   1.421       .  A
C981       Br988   1.945       .  S
C982        C983   1.392       .  A
C983        C984   1.407       .  A
C983       Br990   1.925       .  S
C984        C985   1.455       .  A
C984       Br989   1.946       .  S
C985       C1156   1.612       .  S
C985        C986   1.452       .  A
C986       Br987   1.904       .  S
C991        C992   1.452       .  A
C991        C996   1.405       .  A
C991       Br998   1.950       .  S
C992       C1155   1.576       .  S
C992        C993   1.439       .  A
C993        C994   1.403       .  A
C993      Br1000   1.926       .  S
C994        C995   1.403       .  A
C994       Br999   1.946       .  S
C995        C996   1.404       .  A
C996       Br997   1.945       .  S
C1001      C1002   1.384       .  A
C1001      C1006   1.403       .  A
C1001     Br1008   1.936       .  S
C1002      C1003   1.402       .  A
C1003      C1004   1.422       .  A
C1003     Br1010   1.934       .  S
C1004      C1005   1.447       .  A
C1004     Br1009   1.939       .  S
C1005      C1006   1.464       .  A
C1006     Br1237   1.954   1_554  S
Br1007     C1236   1.950       .  S
C1011      C1472   1.407   1_554  A
C1011      C1016   1.406       .  A
C1011     Br1478   1.911       .  S
C1012      C1471   1.407       .  A
C1012      C1703   1.446   1_554  A
C1013      C1702   1.446       .  A
C1013      C1014   1.424       .  A
C1013     Br1480   1.960       .  S
C1014      C1245   1.438       .  A
C1014     Br1019   1.925       .  S
C1015      C1244   1.434       .  A
C1015      C1016   1.457   1_556  A
C1016     Br1017   1.935       .  S
Br1018     C1471   1.915   1_565  S
Br1020     C1473   1.944       .  S
C1021      C1022   1.393       .  A
C1021      C1026   1.411       .  A
C1021     Br1028   1.940       .  S
C1022      C1023   1.391       .  A
C1023      C1024   1.405       .  A
C1023     Br1030   1.938       .  S
C1024      C1025   1.452       .  A
C1024     Br1029   1.942   1_554  S
C1025      C1154   1.596       .  S
C1025      C1026   1.440       .  A
C1026     Br1027   1.908       .  S
C1031      C1032   1.395       .  A
C1031      C1036   1.410       .  A
C1031     Br1038   1.947       .  S
C1032      C1033   1.408       .  A
C1033      C1034   1.430       .  A
C1033     Br1040   1.941       .  S
C1034      C1035   1.457       .  A
C1034     Br1039   1.933       .  S
C1035      C1036   1.456       .  A
C1036     Br1037   1.924       .  S
C1041      C1272   1.457       .  A
C1041     Br1048   1.950       .  S
C1042      C1271   1.457       .  A
C1042      C1043   1.435       .  A
C1043     Br1050   1.926       .  S
C1044      C1275   1.442       .  A
C1044     Br1049   1.930       .  S
C1045      C1274   1.435   1_554  A
C1045      C1046   1.435       .  A
C1046     Br1047   1.937       .  S
C1051      C1052   1.403       .  A
C1051      C1056   1.406       .  A
C1051     Br1058   1.938       .  S
C1052      C1053   1.422       .  A
C1053      C1054   1.428       .  A
C1053     Br1060   1.941       .  S
C1054      C1055   1.443       .  A
C1054     Br1059   1.919   1_545  S
C1055      C1056   1.443       .  A
C1056     Br1057   1.925       .  S
C1061      C1062   1.398       .  A
C1061      C1066   1.408       .  A
C1061     Br1068   1.939       .  S
C1062      C1063   1.395       .  A
C1063      C1064   1.411       .  A
C1063     Br1070   1.938       .  S
C1064      C1065   1.451       .  A
C1064     Br1069   1.920       .  S
C1065      C1153   1.595       .  S
C1065      C1066   1.443       .  A
C1066     Br1067   1.919       .  S
C1071      C1072   1.445       .  A
C1071      C1076   1.415       .  A
C1071     Br1078   1.936   1_554  S
C1072      C1073   1.440       .  A
C1073      C1074   1.424       .  A
C1073     Br1080   1.943   1_554  S
C1074      C1305   1.440       .  A
C1074     Br1309   1.932       .  S
C1075      C1304   1.440       .  A
C1075      C1306   1.439       .  A
C1076      C1305   1.433       .  A
C1076     Br1077   1.938       .  S
Br1079     C1304   1.936       .  S
C1081      C1082   1.458       .  A
C1081      C1086   1.407       .  A
C1081     Br1318   1.947       .  S
C1082      C1152   1.595       .  S
C1082      C1083   1.449       .  A
C1083      C1084   1.420       .  A
C1083     Br1090   1.932       .  S
C1084      C1085   1.403       .  A
C1084     Br1089   1.937       .  S
C1085      C1086   1.395       .  A
C1086     Br1087   1.938       .  S
Br1088     C1311   1.947       .  S
C1091      C1092   1.400       .  A
C1091      C1096   1.414       .  A
C1091     Br1098   1.933       .  S
C1092      C1093   1.400       .  A
C1093      C1094   1.408       .  A
C1093     Br1100   1.930       .  S
C1094      C1095   1.430       .  A
C1094     Br1099   1.912       .  S
C1095      C1096   1.464       .  A
C1096     Br1097   1.954   1_554  S
C1101      C1102   1.431   1_554  A
C1101      C1106   1.437       .  A
C1101     Br1108   1.943       .  S
C1102      C1333   1.445       .  A
C1103      C1332   1.448       .  A
C1103      C1104   1.420       .  A
C1103     Br1110   1.953       .  S
C1104      C1795   1.445       .  A
C1104     Br1569   1.951       .  S
C1105      C1794   1.456   1_554  A
C1105      C1566   1.434       .  A
C1106      C1565   1.441       .  A
C1106     Br1567   1.918       .  S
Br1107     C1566   1.920       .  S
Br1109     C1564   1.948       .  S
C1111      C1112   1.412       .  A
C1111      C1116   1.417       .  A
C1111     Br1118   1.944       .  S
C1112      C1113   1.407       .  A
C1113      C1114   1.415       .  A
C1113     Br1120   1.941       .  S
C1114      C1115   1.452       .  A
C1114     Br1119   1.937       .  S
C1115      C1151   1.612       .  S
C1115      C1116   1.440       .  A
C1116     Br1117   1.918       .  S
C1121      C1122   1.402       .  A
C1121      C1126   1.413       .  A
C1121     Br1128   1.940       .  S
C1122      C1123   1.408       .  A
C1123      C1124   1.412       .  A
C1123     Br1130   1.940       .  S
C1124      C1125   1.443       .  A
C1124     Br1129   1.936       .  S
C1125      C1126   1.461       .  A
C1126     Br1127   1.955   1_554  S
C1131      C1362   1.433       .  A
C1131     Br1138   1.952       .  S
C1132      C1361   1.433   1_554  A
C1132      C1133   1.449       .  A
C1133     Br1140   1.966       .  S
C1134      C1135   1.442   1_554  A
C1134     Br1139   1.933       .  S
C1135      C1366   1.443       .  A
C1136      C1365   1.439       .  A
C1136     Br1137   1.927       .  S
C1141      C1372   1.465       .  A
C1141      C1146   1.434       .  A
C1141     Br1148   1.961       .  S
C1142      C1371   1.453       .  A
C1142      C1143   1.440   1_556  A
C1143      C1144   1.422       .  A
C1143     Br1150   1.919       .  S
C1144      C1145   1.416   1_554  A
C1144     Br1149   1.928       .  S
C1145      C1376   1.444       .  A
C1146      C1375   1.446       .  A
C1146     Br1147   1.975       .  S
C1151      C1355   1.610       .  S
C1151      C1362   1.646       .  S
C1151      C1372   1.624       .  S
C1152      C1325   1.618       .  S
C1152      C1332   1.651       .  S
C1152      C1365   1.625       .  S
C1153      C1285   1.618       .  S
C1153      C1302   1.645       .  S
C1153      C1335   1.618   1_545  S
C1154      C1265   1.625   1_554  S
C1154      C1272   1.624       .  S
C1154      C1305   1.633       .  S
C1155      C1235   1.635       .  S
C1155      C1242   1.610       .  S
C1155      C1275   1.614       .  S
C1156      C1202   1.596       .  S
C1156      C1245   1.613       .  S
C1156      C1375   1.628       .  S
O1157      C1172   1.258       .  A
O1157     Al1165   1.894       .  S
C1158      O1168   1.258       .  A
C1158      O1159   1.252       .  A
C1158      C1252   1.456       .  S
O1159     Al1161   1.872       .  S
O1160      C1162   1.255       .  A
O1160     Al1161   1.886       .  S
Al1161     O1169   1.894       .  S
Al1161     O1171   1.896       .  S
Al1161     O1170   1.816       .  S
C1162      O1175   1.258       .  A
C1162      C1205   1.476       .  S
O1163      C1173   1.257       .  A
O1163     Al1165   1.903       .  S
O1164      C1177   1.264       .  A
O1164     Al1174   1.912       .  S
Al1165     O1178   1.902       .  S
Al1165     O1175   1.896       .  S
Al1165     O1170   1.808       .  S
O1166      C1173   1.259       .  A
O1166     Al1174   1.906       .  S
O1167      C1176   1.263       .  A
O1167     Al1174   1.914       .  S
O1168     Al1174   1.891       .  S
O1169      C1176   1.257       .  A
O1170     Al1174   1.800       .  S
O1171      C1172   1.257       .  A
C1172      C1212   1.480       .  S
C1173      C1322   1.485       .  S
C1176      C1262   1.487       .  S
C1177      O1178   1.259       .  A
C1177      C1315   1.489       .  S
O1179      C1194   1.263       .  A
O1179     Al1187   1.923       .  S
C1180      O1190   1.257       .  A
C1180      O1181   1.256       .  A
C1180      C1292   1.473       .  S
O1181     Al1183   1.888       .  S
O1182      C1184   1.267       .  A
O1182     Al1183   1.938       .  S
Al1183     O1191   1.924       .  S
Al1183     O1193   1.910       .  S
Al1183     O1192   1.788       .  S
C1184      O1197   1.261       .  A
C1184      C1342   1.502       .  S
O1185      C1195   1.270       .  A
O1185     Al1187   1.896       .  S
O1186      C1199   1.258       .  A
O1186     Al1196   1.917       .  S
Al1187     O1200   1.901       .  S
Al1187     O1197   1.916       .  S
Al1187     O1192   1.794       .  S
O1188      C1195   1.244       .  A
O1188     Al1196   1.885       .  S
O1189      C1198   1.264       .  A
O1189     Al1196   1.914       .  S
O1190     Al1196   1.911       .  S
O1191      C1198   1.266       .  A
O1192     Al1196   1.800       .  S
O1193      C1194   1.261       .  A
C1194      C1352   1.495       .  S
C1195      C1225   1.502       .  S
C1198      C1282   1.502       .  S
C1199      O1200   1.264       .  A
C1199      C1232   1.478       .  S
C1201      C1202   1.438       .  A
C1201      C1206   1.413       .  A
C1201     Br1208   1.921       .  S
C1202      C1203   1.444       .  A
C1203      C1204   1.402       .  A
C1204      C1205   1.400       .  A
C1204     Br1209   1.934       .  S
C1205      C1206   1.403       .  A
C1206     Br1207   1.941       .  S
C1211      C1212   1.393       .  A
C1211      C1216   1.414       .  A
C1211     Br1218   1.942       .  S
C1212      C1213   1.395       .  A
C1213      C1214   1.410       .  A
C1213     Br1220   1.925       .  S
C1214      C1215   1.456       .  A
C1214     Br1219   1.950   1_556  S
C1215      C1216   1.454       .  A
C1216     Br1217   1.918       .  S
C1221      C1222   1.450       .  A
C1221      C1226   1.403       .  A
C1221     Br1228   1.953   1_556  S
C1222      C1223   1.448       .  A
C1223      C1224   1.421       .  A
C1223     Br1230   1.939       .  S
C1224      C1225   1.416       .  A
C1224     Br1229   1.954       .  S
C1225      C1226   1.418       .  A
C1226     Br1227   1.951       .  S
C1231      C1232   1.379       .  A
C1231      C1236   1.400       .  A
C1231     Br1238   1.936       .  S
C1232      C1233   1.400       .  A
C1233      C1234   1.422       .  A
C1233     Br1240   1.930       .  S
C1234      C1235   1.444       .  A
C1234     Br1239   1.936       .  S
C1235      C1236   1.464       .  A
C1241      C1702   1.403       .  A
C1241      C1246   1.400       .  A
C1241     Br1708   1.916       .  S
C1242      C1701   1.414       .  A
C1242      C1473   1.448       .  A
C1243      C1472   1.452       .  A
C1243      C1244   1.428       .  A
C1243     Br1710   1.960       .  S
C1244     Br1249   1.924       .  S
C1245      C1246   1.459       .  A
C1246     Br1247   1.938       .  S
Br1248     C1701   1.917       .  S
Br1250     C1703   1.957       .  S
C1251      C1252   1.393       .  A
C1251      C1256   1.410       .  A
C1251     Br1258   1.937       .  S
C1252      C1253   1.390       .  A
C1253      C1254   1.407       .  A
C1253     Br1260   1.943       .  S
C1254      C1255   1.459       .  A
C1254     Br1259   1.943       .  S
C1255      C1256   1.435       .  A
C1256     Br1257   1.911       .  S
C1261      C1262   1.384       .  A
C1261      C1266   1.408       .  A
C1261     Br1268   1.948       .  S
C1262      C1263   1.403       .  A
C1263      C1264   1.430       .  A
C1263     Br1270   1.941       .  S
C1264      C1265   1.460       .  A
C1264     Br1269   1.931       .  S
C1265      C1266   1.457       .  A
C1266     Br1267   1.910       .  S
C1271     Br1278   1.936       .  S
C1272      C1273   1.433   1_554  A
C1273     Br1280   1.919       .  S
C1274     Br1279   1.925       .  S
C1275      C1276   1.441       .  A
C1276     Br1277   1.926       .  S
C1281      C1282   1.404       .  A
C1281      C1286   1.392       .  A
C1281     Br1288   1.928       .  S
C1282      C1283   1.423       .  A
C1283      C1284   1.437       .  A
C1283     Br1290   1.933       .  S
C1284      C1285   1.446       .  A
C1284     Br1289   1.927   1_545  S
C1285      C1286   1.415       .  A
C1286     Br1287   1.917       .  S
C1291      C1292   1.395       .  A
C1291      C1296   1.414       .  A
C1291     Br1298   1.938       .  S
C1292      C1293   1.391       .  A
C1293      C1294   1.410       .  A
C1293     Br1300   1.939       .  S
C1294      C1295   1.455       .  A
C1294     Br1299   1.921   1_556  S
C1295      C1296   1.449       .  A
C1296     Br1297   1.920       .  S
C1301      C1302   1.448       .  A
C1301      C1306   1.425       .  A
C1301     Br1308   1.950       .  S
C1302      C1303   1.439       .  A
C1303      C1304   1.424       .  A
C1303     Br1310   1.937       .  S
C1306     Br1307   1.938       .  S
C1311      C1312   1.459       .  A
C1311      C1316   1.411       .  A
C1312      C1313   1.451       .  A
C1313      C1314   1.421       .  A
C1313     Br1320   1.933       .  S
C1314      C1315   1.403       .  A
C1314     Br1319   1.938       .  S
C1315      C1316   1.399       .  A
C1316     Br1317   1.941       .  S
C1321      C1322   1.398       .  A
C1321      C1326   1.412       .  A
C1321     Br1328   1.929       .  S
C1322      C1323   1.400       .  A
C1323      C1324   1.414       .  A
C1323     Br1330   1.935       .  S
C1324      C1325   1.434       .  A
C1324     Br1329   1.914       .  S
C1325      C1326   1.464       .  A
C1326     Br1327   1.959       .  S
C1331      C1332   1.426       .  A
C1331      C1336   1.430       .  A
C1331     Br1338   1.944       .  S
C1333      C1334   1.420       .  A
C1333     Br1340   1.953       .  S
C1334      C1565   1.447   1_556  A
C1334     Br1799   1.954       .  S
C1335      C1564   1.444       .  A
C1335      C1796   1.434       .  A
C1336      C1795   1.447       .  A
C1336     Br1797   1.913       .  S
Br1337     C1796   1.929       .  S
Br1339     C1794   1.956       .  S
C1341      C1342   1.402       .  A
C1341      C1346   1.423       .  A
C1341     Br1348   1.937       .  S
C1342      C1343   1.399       .  A
C1343      C1344   1.417       .  A
C1343     Br1350   1.930       .  S
C1344      C1345   1.464       .  A
C1344     Br1349   1.951   1_556  S
C1345      C1346   1.442       .  A
C1346     Br1347   1.907       .  S
C1351      C1352   1.398       .  A
C1351      C1356   1.411       .  A
C1351     Br1358   1.931       .  S
C1352      C1353   1.404       .  A
C1353      C1354   1.423       .  A
C1353     Br1360   1.939       .  S
C1354      C1355   1.453       .  A
C1354     Br1359   1.935       .  S
C1355      C1356   1.458       .  A
C1356     Br1357   1.952       .  S
C1361     Br1368   1.947       .  S
C1362      C1363   1.447       .  A
C1363     Br1370   1.971       .  S
C1364      C1365   1.446       .  A
C1364     Br1369   1.940       .  S
C1366     Br1367   1.925       .  S
C1371      C1376   1.427       .  A
C1371     Br1378   1.943       .  S
C1372      C1373   1.441       .  A
C1373      C1374   1.414       .  A
C1373     Br1380   1.921       .  S
C1374      C1375   1.411       .  A
C1374     Br1379   1.935       .  S
C1376     Br1377   1.962       .  S
C1381      C1805   1.620       .  S
C1381      C1585   1.613   1_556  S
C1381      C1592   1.647       .  S
C1381      C1602   1.628       .  S
C1382      C1772   1.628   1_554  S
C1382      C1555   1.610       .  S
C1382      C1562   1.645   1_554  S
C1382      C1595   1.634       .  S
C1383      C1515   1.617       .  S
C1383      C1755   1.605   1_554  S
C1383      C1532   1.635       .  S
C1383      C1565   1.642       .  S
C1384      C1715   1.593       .  S
C1384      C1495   1.606       .  S
C1384      C1502   1.612       .  S
C1384      C1535   1.638       .  S
C1385      C1682   1.577   1_554  S
C1385      C1465   1.641       .  S
C1385      C1472   1.612   1_554  S
C1385      C1505   1.617       .  S
C1386      C1432   1.602   1_556  S
C1386      C1675   1.606       .  S
C1386      C1475   1.627       .  S
C1386      C1605   1.638       .  S
O1387      C1402   1.261       .  A
O1387     Al1395   1.895       .  S
C1388      O1398   1.255       .  A
C1388      O1389   1.256       .  A
C1388      C1482   1.452       .  S
O1389     Al1391   1.885       .  S
O1390      C1392   1.254       .  A
O1390     Al1391   1.891       .  S
Al1391     O1399   1.886       .  S
Al1391     O1401   1.915       .  S
Al1391     O1400   1.800       .  S
C1392      O1405   1.261       .  A
C1392      C1435   1.486       .  S
O1393      C1403   1.259       .  A
O1393     Al1395   1.893       .  S
O1394      C1407   1.260       .  A
O1394     Al1404   1.902       .  S
Al1395     O1408   1.930       .  S
Al1395     O1405   1.924       .  S
Al1395     O1400   1.785       .  S
O1396      C1403   1.262       .  A
O1396     Al1404   1.918       .  S
O1397      C1406   1.263       .  A
O1397     Al1404   1.911       .  S
O1398     Al1404   1.877       .  S
O1399      C1406   1.255       .  A
O1400     Al1404   1.789       .  S
O1401      C1402   1.263       .  A
C1402      C1442   1.481       .  S
C1403      C1552   1.483       .  S
C1406      C1492   1.476       .  S
C1407      O1408   1.263       .  A
C1407      C1545   1.493       .  S
O1409      C1424   1.261       .  A
O1409     Al1417   1.906       .  S
C1410      O1420   1.267       .  A
C1410      O1411   1.268       .  A
C1410      C1522   1.501       .  S
O1411     Al1413   1.935       .  S
O1412      C1414   1.265       .  A
O1412     Al1413   1.918       .  S
Al1413     O1421   1.921       .  S
Al1413     O1423   1.920       .  S
Al1413     O1422   1.783       .  S
C1414      O1427   1.260       .  A
C1414      C1572   1.505       .  S
O1415      C1425   1.253       .  A
O1415     Al1417   1.880       .  S
O1416      C1429   1.265       .  A
O1416     Al1426   1.905       .  S
Al1417     O1430   1.935       .  S
Al1417     O1427   1.910       .  S
Al1417     O1422   1.793       .  S
O1418      C1425   1.254       .  A
O1418     Al1426   1.898       .  S
O1419      C1428   1.256       .  A
O1419     Al1426   1.908       .  S
O1420     Al1426   1.920       .  S
O1421      C1428   1.263       .  A
O1422     Al1426   1.797       .  S
O1423      C1424   1.262       .  A
C1424      C1582   1.518       .  S
C1425      C1455   1.475       .  S
C1428      C1512   1.503       .  S
C1429      O1430   1.269       .  A
C1429      C1462   1.483       .  S
C1431      C1432   1.439       .  A
C1431      C1436   1.414       .  A
C1431     Br1438   1.916       .  S
C1432      C1433   1.453       .  A
C1433      C1434   1.412       .  A
C1433     Br1670   1.943   1_554  S
C1434      C1435   1.402       .  A
C1434     Br1439   1.935       .  S
C1435      C1436   1.402       .  A
C1436     Br1437   1.940       .  S
Br1440     C1663   1.929       .  S
C1441      C1442   1.393       .  A
C1441      C1446   1.417       .  A
C1441     Br1448   1.947       .  S
C1442      C1443   1.396       .  A
C1443      C1444   1.409       .  A
C1443     Br1450   1.926       .  S
C1444      C1445   1.454       .  A
C1444     Br1449   1.950       .  S
C1445      C1616   1.612       .  S
C1445      C1446   1.458       .  A
C1446     Br1447   1.915       .  S
C1451      C1452   1.452       .  A
C1451      C1456   1.398       .  A
C1451     Br1458   1.953       .  S
C1452      C1615   1.577       .  S
C1452      C1453   1.447       .  A
C1453      C1454   1.416       .  A
C1453     Br1460   1.931       .  S
C1454      C1455   1.407       .  A
C1454     Br1459   1.944       .  S
C1455      C1456   1.399       .  A
C1456     Br1457   1.946       .  S
C1461      C1462   1.388       .  A
C1461      C1466   1.412       .  A
C1461     Br1468   1.945       .  S
C1462      C1463   1.401       .  A
C1463      C1464   1.418       .  A
C1463     Br1470   1.935       .  S
C1464      C1465   1.443       .  A
C1464     Br1469   1.932       .  S
C1465      C1466   1.471       .  A
C1466     Br1697   1.955   1_554  S
Br1467     C1696   1.951       .  S
C1471      C1476   1.400   1_545  A
C1473      C1474   1.420   1_545  A
C1474      C1705   1.433       .  A
C1474     Br1479   1.930       .  S
C1475      C1704   1.443       .  A
C1475      C1476   1.461   1_556  A
C1476     Br1477   1.941       .  S
C1481      C1482   1.391       .  A
C1481      C1486   1.407       .  A
C1481     Br1488   1.939       .  S
C1482      C1483   1.391       .  A
C1483      C1484   1.403       .  A
C1483     Br1490   1.939       .  S
C1484      C1485   1.453       .  A
C1484     Br1489   1.945   1_554  S
C1485      C1614   1.589       .  S
C1485      C1486   1.441       .  A
C1486     Br1487   1.909       .  S
C1491      C1492   1.391       .  A
C1491      C1496   1.387       .  A
C1491     Br1498   1.929       .  S
C1492      C1493   1.410       .  A
C1493      C1494   1.428       .  A
C1493     Br1500   1.932       .  S
C1494      C1495   1.442       .  A
C1494     Br1499   1.916       .  S
C1495      C1496   1.430       .  A
C1496     Br1497   1.907       .  S
C1501      C1732   1.453       .  A
C1501     Br1508   1.949       .  S
C1502      C1731   1.452       .  A
C1502      C1503   1.414       .  A
C1503     Br1510   1.924       .  S
C1504      C1735   1.441       .  A
C1504     Br1509   1.936       .  S
C1505      C1734   1.446   1_554  A
C1505      C1506   1.431       .  A
C1506     Br1507   1.935       .  S
C1511      C1512   1.410       .  A
C1511      C1516   1.413       .  A
C1511     Br1518   1.939       .  S
C1512      C1513   1.419       .  A
C1513      C1514   1.425       .  A
C1513     Br1520   1.944       .  S
C1514      C1515   1.442       .  A
C1514     Br1519   1.918       .  S
C1515      C1516   1.440       .  A
C1516     Br1517   1.926       .  S
C1521      C1522   1.405       .  A
C1521      C1526   1.422       .  A
C1521     Br1528   1.935       .  S
C1522      C1523   1.398       .  A
C1523      C1524   1.416       .  A
C1523     Br1530   1.935       .  S
C1524      C1525   1.455       .  A
C1524     Br1529   1.928       .  S
C1525      C1613   1.615       .  S
C1525      C1526   1.448       .  A
C1526     Br1527   1.923       .  S
C1531      C1532   1.445       .  A
C1531      C1536   1.414       .  A
C1531     Br1538   1.934   1_554  S
C1532      C1533   1.441       .  A
C1533      C1534   1.427       .  A
C1533     Br1540   1.937   1_554  S
C1534      C1765   1.443       .  A
C1534     Br1769   1.937       .  S
C1535      C1764   1.438       .  A
C1535      C1766   1.427       .  A
C1536      C1765   1.436       .  A
C1536     Br1537   1.941       .  S
Br1539     C1764   1.915       .  S
C1541      C1542   1.458       .  A
C1541      C1546   1.412       .  A
C1541     Br1778   1.951       .  S
C1542      C1612   1.609       .  S
C1542      C1543   1.449       .  A
C1543      C1544   1.423       .  A
C1543     Br1550   1.931       .  S
C1544      C1545   1.406       .  A
C1544     Br1549   1.942       .  S
C1545      C1546   1.399       .  A
C1546     Br1547   1.939       .  S
Br1548     C1771   1.939   1_554  S
C1551      C1552   1.402       .  A
C1551      C1556   1.413       .  A
C1551     Br1558   1.936       .  S
C1552      C1553   1.400       .  A
C1553      C1554   1.413       .  A
C1553     Br1560   1.949       .  S
C1554      C1555   1.450       .  A
C1554     Br1559   1.920       .  S
C1555      C1556   1.448       .  A
C1556     Br1557   1.930       .  S
C1561      C1562   1.431   1_554  A
C1561      C1566   1.433       .  A
C1561     Br1568   1.950       .  S
C1562      C1793   1.443       .  A
C1563      C1792   1.441       .  A
C1563      C1564   1.412       .  A
C1563     Br1570   1.957       .  S
C1571      C1572   1.408       .  A
C1571      C1576   1.427       .  A
C1571     Br1578   1.947       .  S
C1572      C1573   1.399       .  A
C1573      C1574   1.411       .  A
C1573     Br1580   1.931       .  S
C1574      C1575   1.457       .  A
C1574     Br1579   1.942       .  S
C1575      C1611   1.629       .  S
C1575      C1576   1.447       .  A
C1576     Br1577   1.911       .  S
C1581      C1582   1.411       .  A
C1581      C1586   1.418       .  A
C1581     Br1588   1.947       .  S
C1582      C1583   1.418       .  A
C1583      C1584   1.426       .  A
C1583     Br1590   1.945       .  S
C1584      C1585   1.446       .  A
C1584     Br1589   1.936       .  S
C1585      C1586   1.458       .  A
C1586     Br1587   1.955   1_554  S
C1591      C1822   1.433       .  A
C1591     Br1598   1.950       .  S
C1592      C1821   1.442       .  A
C1592      C1593   1.445   1_556  A
C1593     Br1600   1.970       .  S
C1594      C1595   1.458       .  A
C1594     Br1599   1.962       .  S
C1595      C1826   1.437   1_554  A
C1596      C1825   1.440       .  A
C1596     Br1597   1.921       .  S
C1601      C1832   1.453       .  A
C1601      C1606   1.426       .  A
C1601     Br1608   1.951       .  S
C1602      C1831   1.460       .  A
C1602      C1603   1.447   1_556  A
C1603      C1604   1.421       .  A
C1603     Br1610   1.918       .  S
C1604      C1605   1.408   1_554  A
C1604     Br1609   1.927       .  S
C1605      C1836   1.443       .  A
C1606      C1835   1.448       .  A
C1606     Br1607   1.969       .  S
C1611      C1815   1.607       .  S
C1611      C1822   1.643       .  S
C1611      C1832   1.625       .  S
C1612      C1785   1.610       .  S
C1612      C1792   1.645       .  S
C1612      C1825   1.620       .  S
C1613      C1745   1.609       .  S
C1613      C1762   1.625       .  S
C1613      C1795   1.642       .  S
C1614      C1725   1.624   1_554  S
C1614      C1732   1.616       .  S
C1614      C1765   1.637       .  S
C1615      C1695   1.628       .  S
C1615      C1702   1.598       .  S
C1615      C1735   1.607       .  S
C1616      C1662   1.612       .  S
C1616      C1705   1.614       .  S
C1616      C1835   1.636       .  S
O1617      C1632   1.256       .  A
O1617     Al1625   1.886       .  S
C1618      O1628   1.260       .  A
C1618      O1619   1.255       .  A
C1618      C1712   1.467       .  S
O1619     Al1621   1.889       .  S
O1620      C1622   1.259       .  A
O1620     Al1621   1.892       .  S
Al1621     O1629   1.914       .  S
Al1621     O1631   1.900       .  S
Al1621     O1630   1.804       .  S
C1622      O1635   1.265       .  A
C1622      C1665   1.484       .  S
O1623      C1633   1.253       .  A
O1623     Al1625   1.893       .  S
O1624      C1637   1.265       .  A
O1624     Al1634   1.920       .  S
Al1625     O1638   1.931       .  S
Al1625     O1635   1.919       .  S
Al1625     O1630   1.799       .  S
O1626      C1633   1.257       .  A
O1626     Al1634   1.897       .  S
O1627      C1636   1.261       .  A
O1627     Al1634   1.915       .  S
O1628     Al1634   1.904       .  S
O1629      C1636   1.264       .  A
O1630     Al1634   1.795       .  S
O1631      C1632   1.256       .  A
C1632      C1672   1.483       .  S
C1633      C1782   1.474       .  S
C1636      C1722   1.493       .  S
C1637      O1638   1.265       .  A
C1637      C1775   1.504       .  S
O1639      C1654   1.258       .  A
O1639     Al1647   1.899       .  S
C1640      O1650   1.267       .  A
C1640      O1641   1.270       .  A
C1640      C1752   1.481       .  S
O1641     Al1643   1.930       .  S
O1642      C1644   1.263       .  A
O1642     Al1643   1.917       .  S
Al1643     O1651   1.915       .  S
Al1643     O1653   1.911       .  S
Al1643     O1652   1.785       .  S
C1644      O1657   1.258       .  A
C1644      C1802   1.507       .  S
O1645      C1655   1.250       .  A
O1645     Al1647   1.878       .  S
O1646      C1659   1.266       .  A
O1646     Al1656   1.898       .  S
Al1647     O1660   1.925       .  S
Al1647     O1657   1.896       .  S
Al1647     O1652   1.786       .  S
O1648      C1655   1.251       .  A
O1648     Al1656   1.896       .  S
O1649      C1658   1.250       .  A
O1649     Al1656   1.892       .  S
O1650     Al1656   1.893       .  S
O1651      C1658   1.260       .  A
O1652     Al1656   1.802       .  S
O1653      C1654   1.260       .  A
C1654      C1812   1.509       .  S
C1655      C1685   1.471       .  S
C1658      C1742   1.491       .  S
C1659      O1660   1.270       .  A
C1659      C1692   1.471       .  S
C1661      C1662   1.448       .  A
C1661      C1666   1.422       .  A
C1661     Br1668   1.916       .  S
C1662      C1663   1.447       .  A
C1663      C1664   1.405       .  A
C1664      C1665   1.395       .  A
C1664     Br1669   1.935       .  S
C1665      C1666   1.402       .  A
C1666     Br1667   1.946       .  S
C1671      C1672   1.403       .  A
C1671      C1676   1.418       .  A
C1671     Br1678   1.947       .  S
C1672      C1673   1.397       .  A
C1673      C1674   1.408       .  A
C1673     Br1680   1.941       .  S
C1674      C1675   1.459       .  A
C1674     Br1679   1.953       .  S
C1675      C1676   1.448       .  A
C1676     Br1677   1.918       .  S
C1681      C1682   1.456       .  A
C1681      C1686   1.401       .  A
C1681     Br1688   1.952   1_556  S
C1682      C1683   1.448       .  A
C1683      C1684   1.415       .  A
C1683     Br1690   1.933       .  S
C1684      C1685   1.404       .  A
C1684     Br1689   1.944       .  S
C1685      C1686   1.396       .  A
C1686     Br1687   1.946       .  S
C1691      C1692   1.388       .  A
C1691      C1696   1.409       .  A
C1691     Br1698   1.942       .  S
C1692      C1693   1.398       .  A
C1693      C1694   1.411       .  A
C1693     Br1700   1.933       .  S
C1694      C1695   1.437       .  A
C1694     Br1699   1.933       .  S
C1695      C1696   1.466       .  A
C1701      C1706   1.415   1_545  A
C1703      C1704   1.431   1_545  A
C1704     Br1709   1.923       .  S
C1705      C1706   1.459       .  A
C1706     Br1707   1.941       .  S
C1711      C1712   1.393       .  A
C1711      C1716   1.409       .  A
C1711     Br1718   1.942       .  S
C1712      C1713   1.399       .  A
C1713      C1714   1.412       .  A
C1713     Br1720   1.937       .  S
C1714      C1715   1.451       .  A
C1714     Br1719   1.945       .  S
C1715      C1716   1.440       .  A
C1716     Br1717   1.901       .  S
C1721      C1722   1.393       .  A
C1721      C1726   1.411       .  A
C1721     Br1728   1.950       .  S
C1722      C1723   1.401       .  A
C1723      C1724   1.428       .  A
C1723     Br1730   1.941       .  S
C1724      C1725   1.456       .  A
C1724     Br1729   1.926       .  S
C1725      C1726   1.460       .  A
C1726     Br1727   1.924   1_556  S
C1731     Br1738   1.959       .  S
C1732      C1733   1.433   1_554  A
C1733     Br1740   1.922       .  S
C1734     Br1739   1.934       .  S
C1735      C1736   1.429       .  A
C1736     Br1737   1.944       .  S
C1741      C1742   1.404       .  A
C1741      C1746   1.409       .  A
C1741     Br1748   1.939       .  S
C1742      C1743   1.416       .  A
C1743      C1744   1.420       .  A
C1743     Br1750   1.943       .  S
C1744      C1745   1.440       .  A
C1744     Br1749   1.915       .  S
C1745      C1746   1.443       .  A
C1746     Br1747   1.935       .  S
C1751      C1752   1.401       .  A
C1751      C1756   1.415       .  A
C1751     Br1758   1.936       .  S
C1752      C1753   1.394       .  A
C1753      C1754   1.414       .  A
C1753     Br1760   1.948       .  S
C1754      C1755   1.458       .  A
C1754     Br1759   1.928   1_556  S
C1755      C1756   1.447       .  A
C1756     Br1757   1.924       .  S
C1761      C1762   1.444       .  A
C1761      C1766   1.414       .  A
C1761     Br1768   1.926       .  S
C1762      C1763   1.433       .  A
C1763      C1764   1.421       .  A
C1763     Br1770   1.936       .  S
C1766     Br1767   1.936       .  S
C1771      C1772   1.458       .  A
C1771      C1776   1.421       .  A
C1772      C1773   1.454       .  A
C1773      C1774   1.423       .  A
C1773     Br1780   1.926       .  S
C1774      C1775   1.401       .  A
C1774     Br1779   1.940       .  S
C1775      C1776   1.402       .  A
C1776     Br1777   1.937       .  S
C1781      C1782   1.393       .  A
C1781      C1786   1.403       .  A
C1781     Br1788   1.931       .  S
C1782      C1783   1.397       .  A
C1783      C1784   1.415       .  A
C1783     Br1790   1.936       .  S
C1784      C1785   1.437       .  A
C1784     Br1789   1.914       .  S
C1785      C1786   1.459       .  A
C1786     Br1787   1.948       .  S
C1791      C1792   1.435       .  A
C1791      C1796   1.433       .  A
C1791     Br1798   1.946       .  S
C1793      C1794   1.426       .  A
C1793     Br1800   1.956       .  S
C1801      C1802   1.411       .  A
C1801      C1806   1.416       .  A
C1801     Br1808   1.943       .  S
C1802      C1803   1.408       .  A
C1803      C1804   1.422       .  A
C1803     Br1810   1.942       .  S
C1804      C1805   1.459       .  A
C1804     Br1809   1.941       .  S
C1805      C1806   1.437       .  A
C1806     Br1807   1.910       .  S
C1811      C1812   1.409       .  A
C1811      C1816   1.417       .  A
C1811     Br1818   1.943       .  S
C1812      C1813   1.413       .  A
C1813      C1814   1.420       .  A
C1813     Br1820   1.945       .  S
C1814      C1815   1.447       .  A
C1814     Br1819   1.936       .  S
C1815      C1816   1.457       .  A
C1816     Br1817   1.956       .  S
C1821     Br1828   1.953       .  S
C1822      C1823   1.449       .  A
C1823     Br1830   1.976       .  S
C1824      C1825   1.447       .  A
C1824     Br1829   1.946       .  S
C1826     Br1827   1.928       .  S
C1831      C1836   1.425       .  A
C1831     Br1838   1.951       .  S
C1832      C1833   1.447       .  A
C1833      C1834   1.423       .  A
C1833     Br1840   1.918       .  S
C1834      C1835   1.420       .  A
C1834     Br1839   1.949       .  S
C1836     Br1837   1.969       .  S
