geometry optimzed in LAMMPS
_audit_creation_date              2020-11-30 
_audit_creation_method            'lammps2cif' 
_symmetry_space_group_name_H-M    'P1' 
_symmetry_Int_Tables_number       1 
_symmetry_cell_setting            triclinic 
loop_ 
_symmetry_equiv_pos_as_xyz 
  x,y,z 
_cell_length_a                    67.49873361 
_cell_length_b                    67.05503178156408 
_cell_length_c                    67.04662945420088 
_cell_angle_alpha                 89.37174308937949 
_cell_angle_beta                  90.46875714822504 
_cell_angle_gamma                 89.77118202245536 
loop_ 
_atom_site_label 
_atom_site_type_symbol 
_atom_site_fract_x 
_atom_site_fract_y 
_atom_site_fract_z 
_atom_site_charge 
C1          C  0.51758861  0.61765540  0.28222648    -0.01600
C2          C  0.40645339  0.51617260  0.28153417    -0.01600
C3          C  0.49624112  0.39789556  0.28195805    -0.01600
C4          C  0.61216973  0.49625060  0.28917234    -0.01600
C5          C  0.29110895  0.51984137  0.60232955    -0.01600
C6          C  0.29101443  0.40309564  0.50426272    -0.01600
C7          C  0.29621257  0.50350391  0.38721170    -0.01600
C8          C  0.29587783  0.61792652  0.48610875    -0.01600
C9          C  0.61592491  0.29218011  0.51070106    -0.01600
C10         C  0.51391491  0.29336456  0.39595527    -0.01600
C11         C  0.40253876  0.29394402  0.49372970    -0.01600
C12         C  0.50530602  0.28867629  0.61080638    -0.01600
C13         C  0.52326031  0.71828484  0.60309260    -0.01600
C14         C  0.40508776  0.72613460  0.50516042    -0.01600
C15         C  0.50529970  0.72565758  0.39154635    -0.01600
C16         C  0.62146578  0.72602550  0.48938376    -0.01600
C17         C  0.61653652  0.51402083  0.72074829    -0.01600
C18         C  0.50366847  0.61516367  0.71803286    -0.01600
C19         C  0.40900036  0.49691583  0.70343506    -0.01600
C20         C  0.51873813  0.39759333  0.71782815    -0.01600
C21         C  0.72540972  0.61070795  0.50688919    -0.01600
C22         C  0.72957299  0.51592481  0.38865336    -0.01600
C23         C  0.72373276  0.40023546  0.49251977    -0.01600
C24         C  0.71970464  0.49709000  0.60651773    -0.01600
C25         C  0.79237402  0.01003566  0.89039119    -0.01600
C26         C  0.79090539  0.11732752  0.99624738    -0.01600
C27         C  0.79114557  0.01648753  0.11299754    -0.01600
C28         C  0.79516558  0.90915110  0.00671279    -0.01600
C29         C  0.90316492  0.79781640  0.98902510    -0.01600
C30         C  0.00382626  0.79642302  0.10097651    -0.01600
C31         C  0.11593504  0.79296204  0.00045951    -0.01600
C32         C  0.01210393  0.79324126  0.88578516    -0.01600
C33         C  0.00317304  0.91073761  0.78116168    -0.01600
C34         C  0.11939181  0.00440043  0.77334652    -0.01600
C35         C  0.01749040  0.11732620  0.77840928    -0.01600
C36         C  0.90110538  0.02354012  0.78242530    -0.01600
C37         C  0.22924484  0.89788011  0.98712265    -0.01600
C38         C  0.22775443  0.01061543  0.88557241    -0.01600
C39         C  0.22506242  0.00172567  0.09754347    -0.01600
C40         C  0.22804346  0.11625380  0.99652334    -0.01600
C41         C  0.99923444  0.22428060  0.88708971    -0.01600
C42         C  0.90169643  0.22604122  0.00242606    -0.01600
C43         C  0.02092054  0.22626792  0.09967588    -0.01600
C44         C  0.11574799  0.22177414  0.97909195    -0.01600
C45         C  0.90461625  0.00446623  0.21809562    -0.01600
C46         C  0.00290328  0.12268599  0.21391378    -0.01600
C47         C  0.11347924  0.02126124  0.20302500    -0.01600
C48         C  0.01937025  0.90234011  0.21325176    -0.01600
O49         O  0.64252548  0.13023635  0.52788675    -0.57000
C50         C  0.67062278  0.07769964  0.52420482     0.75700
O51         O  0.67466966  0.11420016  0.58201180    -0.58100
C52         C  0.63794667  0.14325936  0.54056992     0.75600
C53         C  0.63391109  0.07245398  0.57297765     0.78000
Cd54       Cd  0.65451037  0.10475708  0.55267662     1.37500
O55         O  0.65402965  0.08618594  0.52112292    -0.57000
O56         O  0.62689146  0.08009330  0.55705696    -0.55800
C57         C  0.69021015  0.11749334  0.57198378     0.78000
O58         O  0.64808525  0.08183916  0.58090972    -0.58100
O59         O  0.68033470  0.08349929  0.53921652    -0.56600
O60         O  0.63888338  0.13772972  0.55867947    -0.56600
O61         O  0.68856745  0.11582778  0.55325669    -0.55800
O62         O  0.87309719  0.04672910  0.62158349    -0.57000
C63         C  0.84821315  0.04456609  0.56745551     0.75700
O64         O  0.84187605  0.10119554  0.60337603    -0.58100
C65         C  0.87767354  0.05903571  0.63499091     0.75600
C66         C  0.88863203  0.09100296  0.56612235     0.78000
Cd67       Cd  0.86330456  0.07207551  0.59599500     1.37500
O68         O  0.86307617  0.04005472  0.57831438    -0.57000
O69         O  0.89191379  0.07361422  0.57292492    -0.55800
C70         C  0.82666723  0.09073008  0.60702678     0.78000
O71         O  0.87540695  0.10075421  0.57514782    -0.58100
O72         O  0.83956631  0.06076867  0.57139340    -0.56600
O73         O  0.87754850  0.07725520  0.62977801    -0.56600
O74         O  0.82895529  0.07202650  0.60620752    -0.55800
O75         O  0.87269198  0.92764084  0.42379149    -0.57000
C76         C  0.82497983  0.93632889  0.39240386     0.75700
O77         O  0.86179978  0.98760635  0.42271358    -0.58100
C78         C  0.88643387  0.93675196  0.43283012     0.75600
C79         C  0.87160639  0.97134483  0.36348865     0.78000
Cd80       Cd  0.86062718  0.95666274  0.40327631     1.37500
O81         O  0.84137698  0.92700468  0.39316310    -0.57000
O82         O  0.87704806  0.95430555  0.36992933    -0.55800
C83         C  0.84705755  0.98308612  0.43348051     0.78000
O84         O  0.86308625  0.98221059  0.37613416    -0.58100
O85         O  0.82556842  0.95468750  0.39642686    -0.56600
O86         O  0.89022361  0.95402414  0.42603352    -0.56600
O87         O  0.83772175  0.96754991  0.42866721    -0.55800
O88         O  0.65900102  0.93861781  0.41990149    -0.57000
C89         C  0.69412950  0.89811303  0.42260667     0.75700
O90         O  0.65755501  0.93405000  0.47415343    -0.58100
C91         C  0.64228774  0.94549663  0.42473010     0.75600
C92         C  0.64621231  0.87405756  0.45982923     0.78000
Cd93       Cd  0.66142329  0.91217605  0.44532984     1.37500
O94         O  0.67732608  0.90075972  0.41435986    -0.57000
O95         O  0.64106738  0.88091262  0.44282618    -0.55800
C96         C  0.67517774  0.94051051  0.47371558     0.78000
O97         O  0.65626175  0.88577617  0.47050206    -0.58100
O98         O  0.69523309  0.90129124  0.44115737    -0.56600
O99         O  0.63258770  0.93494797  0.43707891    -0.56600
O100        O  0.68700515  0.93139016  0.46244018    -0.55800
O101        O  0.58927836  0.99651759  0.85929959    -0.57000
C102        C  0.64686157  0.98164036  0.85904143     0.75700
O103        O  0.57826013  0.94746501  0.84739104    -0.58100
C104        C  0.58145069  0.00145511  0.84275043     0.75600
C105        C  0.61613710  0.94433835  0.81255814     0.78000
Cd106      Cd  0.60752729  0.96809282  0.84693166     1.37500
O107        O  0.63580686  0.99113214  0.84692380    -0.57000
O108        O  0.61167733  0.96268996  0.81141365    -0.55800
C109        C  0.57474009  0.94739663  0.86586116     0.78000
O110        O  0.61724041  0.93682166  0.82998084    -0.58100
O111        O  0.63941057  0.96591215  0.86660143    -0.56600
O112        O  0.58775606  0.99243184  0.82752093    -0.56600
O113        O  0.58812765  0.95502962  0.87682138    -0.55800
O114        O  0.54558872  0.87902318  0.63286732    -0.57000
C115        C  0.54210282  0.93469574  0.64837002     0.75700
O116        O  0.59841383  0.89584816  0.66523450    -0.58100
C117        C  0.55773752  0.86524912  0.62891753     0.75600
C118        C  0.59507534  0.93410097  0.62207893     0.78000
Cd119      Cd  0.57084784  0.90432280  0.64202727     1.37500
O120        O  0.54423569  0.92721598  0.63125581    -0.57000
O121        O  0.58317564  0.92352978  0.61197899    -0.55800
C122        C  0.58752948  0.89509672  0.68057227     0.78000
O123        O  0.59788513  0.92839950  0.63988290    -0.58100
O124        O  0.55108015  0.92606118  0.66269339    -0.56600
O125        O  0.57587845  0.87011777  0.62901178    -0.56600
O126        O  0.56912244  0.89748411  0.67757961    -0.55800
O127        O  0.48166350  0.13165486  0.65048483    -0.57000
C128        C  0.48713780  0.07397915  0.65519727     0.75700
O129        O  0.43131200  0.11532273  0.67771851    -0.58100
C130        C  0.47033524  0.14392296  0.64149103     0.75600
C131        C  0.43332216  0.07406060  0.63571886     0.78000
Cd132      Cd  0.45758616  0.10432271  0.65460270     1.37500
O133        O  0.48279011  0.08332805  0.63924768    -0.57000
O134        O  0.44310926  0.08632475  0.62517517    -0.55800
C135        C  0.44188282  0.11331237  0.69335997     0.78000
O136        O  0.43215081  0.07823750  0.65402993    -0.58100
O137        O  0.48030669  0.08111656  0.67116629    -0.56600
O138        O  0.45323264  0.13738191  0.63709800    -0.56600
O139        O  0.45954183  0.10746900  0.69074656    -0.55800
O140        O  0.38634833  0.04454686  0.86975685    -0.57000
C141        C  0.44372082  0.05069802  0.85540824     0.75700
O142        O  0.40700588  0.10378330  0.85004857    -0.58100
C143        C  0.37168582  0.05415735  0.87633845     0.75600
C144        C  0.43661544  0.08870772  0.90003984     0.78000
Cd145      Cd  0.41043833  0.07213004  0.86973786     1.37500
O146        O  0.43401574  0.04379450  0.87004600    -0.57000
O147        O  0.43246222  0.07031887  0.89953298    -0.55800
C148        C  0.40425094  0.09479252  0.83368230     0.78000
O149        O  0.42587576  0.09988988  0.88898208    -0.58100
O150        O  0.43622235  0.06551251  0.84631117    -0.56600
O151        O  0.37538176  0.07174324  0.88208681    -0.56600
O152        O  0.40288898  0.07600359  0.83471934    -0.55800
O153        O  0.63274849  0.04569037  0.13883103    -0.57000
C154        C  0.57368770  0.04169766  0.14936984     0.75700
O155        O  0.60857290  0.09834476  0.16409294    -0.58100
C156        C  0.64552603  0.05763865  0.13199623     0.75600
C157        C  0.57668882  0.08895325  0.11469440     0.78000
Cd158      Cd  0.60479175  0.06956463  0.14163299     1.37500
O159        O  0.58495811  0.03935403  0.13452935    -0.57000
O160        O  0.58457887  0.07231027  0.11074612    -0.55800
C161        C  0.60945199  0.08784282  0.17994327     0.78000
O162        O  0.58460212  0.09840552  0.12894434    -0.58100
O163        O  0.57876385  0.05494074  0.16165785    -0.56600
O164        O  0.63918881  0.07511770  0.12817750    -0.56600
O165        O  0.60901698  0.06911925  0.17769620    -0.55800
O166        O  0.59734345  0.09054889  0.36590741    -0.57000
C167        C  0.58092649  0.11853076  0.32118629     0.75700
O168        O  0.54148274  0.08872201  0.37321857    -0.58100
C169        C  0.59234097  0.08308634  0.38254573     0.75600
C170        C  0.55289996  0.14965040  0.37357245     0.78000
Cd171      Cd  0.56725029  0.11100597  0.36091145     1.37500
O172        O  0.59277039  0.11941077  0.33594932    -0.57000
O173        O  0.57087515  0.14467004  0.37632003    -0.55800
C174        C  0.53946081  0.07941589  0.35701485     0.78000
O175        O  0.54178365  0.13632779  0.36648718    -0.58100
O176        O  0.56293829  0.11526594  0.32525659    -0.56600
O177        O  0.57763516  0.09125969  0.39080017    -0.56600
O178        O  0.54860879  0.08645704  0.34214702    -0.55800
O179        O  0.42987821  0.97813215  0.12934028    -0.57000
C180        C  0.36999252  0.96301107  0.12727964     0.75700
O181        O  0.43376690  0.92271061  0.13698552    -0.58100
C182        C  0.43813776  0.98091099  0.14609313     0.75600
C183        C  0.40349595  0.93378541  0.17996783     0.78000
Cd184      Cd  0.40955679  0.95018298  0.14073227     1.37500
O185        O  0.37620100  0.94552262  0.12363787    -0.57000
O186        O  0.40608135  0.95216745  0.17644566    -0.55800
C187        C  0.44071769  0.92849151  0.12043143     0.78000
O188        O  0.40250730  0.92257753  0.16484278    -0.58100
O189        O  0.38237745  0.97428029  0.13567809    -0.56600
O190        O  0.43116372  0.97119970  0.16069404    -0.56600
O191        O  0.43078088  0.94193545  0.11138910    -0.55800
O192        O  0.42017011  0.93298378  0.36810317    -0.57000
C193        C  0.43362424  0.90629054  0.32341291     0.75700
O194        O  0.47772436  0.93369780  0.37244558    -0.58100
C195        C  0.42606889  0.94062179  0.38424927     0.75600
C196        C  0.46323480  0.87266133  0.37509633     0.78000
Cd197      Cd  0.44955239  0.91233346  0.36268152     1.37500
O198        O  0.42255977  0.90537937  0.33860386    -0.57000
O199        O  0.44538996  0.87793011  0.37783067    -0.55800
C200        C  0.47757848  0.94357135  0.35621593     0.78000
O201        O  0.47445575  0.88611906  0.36834112    -0.58100
O202        O  0.45195924  0.90853339  0.32681139    -0.56600
O203        O  0.44078590  0.93222521  0.39271907    -0.56600
O204        O  0.46619607  0.93738090  0.34259676    -0.55800
O205        O  0.13977871  0.98395926  0.61179581    -0.57000
C206        C  0.13742656  0.98749377  0.55641110     0.75700
O207        O  0.16952922  0.93388460  0.59657584    -0.58100
C208        C  0.13610263  0.97223583  0.62616490     0.75600
C209        C  0.12679762  0.92968472  0.55870332     0.78000
Cd210      Cd  0.14425080  0.95817077  0.58616957     1.37500
O211        O  0.12336327  0.97990309  0.56627771    -0.57000
O212        O  0.11574063  0.93857585  0.57108207    -0.55800
C213        C  0.18410747  0.94439890  0.59106330     0.78000
O214        O  0.14517186  0.93213160  0.56122035    -0.58100
O215        O  0.15491355  0.98383340  0.56254110    -0.56600
O216        O  0.13450099  0.95390833  0.62187896    -0.56600
O217        O  0.18005336  0.96141950  0.58363613    -0.55800
O218        O  0.33849632  0.90379381  0.58737114    -0.57000
C219        C  0.38416009  0.93773448  0.59128021     0.75700
O220        O  0.37606641  0.88280485  0.54104409    -0.58100
C221        C  0.32501682  0.90593720  0.57420461     0.75600
C222        C  0.36938330  0.94148108  0.53646378     0.78000
Cd223      Cd  0.36607681  0.90944549  0.56431188     1.37500
O224        O  0.36612553  0.93280673  0.59234948    -0.57000
O225        O  0.35307011  0.93239248  0.53839895    -0.55800
C226        C  0.37791958  0.86876167  0.55369461     0.78000
O227        O  0.38449838  0.93330809  0.54434786    -0.58100
O228        O  0.39489133  0.92651439  0.58067728    -0.56600
O229        O  0.33072339  0.90895067  0.55647102    -0.56600
O230        O  0.37600595  0.87377082  0.57176457    -0.55800
O231        O  0.36408204  0.08280115  0.42466313    -0.57000
C232        C  0.32476001  0.11193453  0.43075665     0.75700
O233        O  0.38079263  0.09031052  0.47531560    -0.58100
C234        C  0.38235772  0.07882783  0.42550302     0.75600
C235        C  0.37157455  0.14982304  0.46021047     0.78000
Cd236      Cd  0.36290040  0.10874867  0.44943739     1.37500
O237        O  0.34051872  0.11351499  0.42072739    -0.57000
O238        O  0.37662776  0.14318620  0.44330294    -0.55800
C239        C  0.36590602  0.08109084  0.48200803     0.78000
O240        O  0.36386563  0.13725840  0.47194588    -0.58100
O241        O  0.32670430  0.10982456  0.44949219    -0.56600
O242        O  0.39286463  0.09087606  0.43554765    -0.56600
O243        O  0.34913853  0.08671306  0.47531750    -0.55800
O244        O  0.15062105  0.08737908  0.42006891    -0.57000
C245        C  0.18657429  0.07801655  0.38952557     0.75700
O246        O  0.12125313  0.04767796  0.40791338    -0.58100
C247        C  0.13344941  0.09447580  0.42218967     0.75600
C248        C  0.13711679  0.05800737  0.34906752     0.78000
Cd249      Cd  0.14563567  0.06755258  0.39062674     1.37500
O250        O  0.17313327  0.09040457  0.38450450    -0.57000
O251        O  0.13603960  0.07591808  0.35504629    -0.55800
C252        C  0.13398580  0.03667417  0.41667852     0.78000
O253        O  0.14059929  0.04491262  0.36235151    -0.58100
O254        O  0.18090443  0.06048107  0.39378182    -0.56600
O255        O  0.12125971  0.09090518  0.40803903    -0.56600
O256        O  0.15167294  0.03766617  0.41045252    -0.55800
O257        O  0.08542430  0.37967468  0.57518335    -0.57000
C258        C  0.11498779  0.33132502  0.57229360     0.75700
O259        O  0.08695695  0.36679625  0.51721067    -0.58100
C260        C  0.07638261  0.39237722  0.56431639     0.75600
C261        C  0.14584331  0.37623227  0.53435659     0.78000
Cd262      Cd  0.10635312  0.36586082  0.54835916     1.37500
O263        O  0.11274289  0.34807911  0.58062981    -0.57000
O264        O  0.13947081  0.38269524  0.55083647    -0.55800
C265        C  0.07738952  0.35102049  0.52117107     0.78000
O266        O  0.13336449  0.36689020  0.52393854    -0.58100
O267        O  0.11348943  0.33118501  0.55349096    -0.56600
O268        O  0.08347996  0.39506302  0.54706585    -0.56600
O269        O  0.08308247  0.34117714  0.53635161    -0.55800
O270        O  0.09884664  0.15597935  0.56783617    -0.57000
C271        C  0.08811558  0.19411041  0.60532956     0.75700
O272        O  0.04569262  0.14602573  0.57243829    -0.58100
C273        C  0.09637512  0.13829793  0.56196526     0.75600
C274        C  0.06153687  0.14099829  0.63364769     0.78000
Cd275      Cd  0.07327136  0.15585565  0.59421373     1.37500
O276        O  0.09973678  0.17920325  0.60444503    -0.57000
O277        O  0.07953911  0.14104000  0.62833472    -0.55800
C278        C  0.04218261  0.16358333  0.56610950     0.78000
O279        O  0.04912790  0.14538512  0.62003946    -0.58100
O280        O  0.07005242  0.19079257  0.60153920    -0.56600
O281        O  0.08564489  0.12749910  0.57314955    -0.56600
O282        O  0.05138239  0.17746432  0.57474578    -0.55800
O283        O  0.92879209  0.14128251  0.41738676    -0.57000
C284        C  0.93143036  0.19320284  0.38985410     0.75700
O285        O  0.98668948  0.16249267  0.41929373    -0.58100
C286        C  0.94025508  0.13265417  0.42989135     0.75600
C287        C  0.97268412  0.14788531  0.36059146     0.78000
Cd288      Cd  0.95590722  0.15925008  0.39948537     1.37500
O289        O  0.92361041  0.17630538  0.39300362    -0.57000
O290        O  0.95729173  0.13935932  0.36729789    -0.55800
C291        C  0.97948914  0.17508919  0.43127149     0.78000
O292        O  0.98085619  0.15987445  0.37248918    -0.58100
O293        O  0.95016344  0.19363208  0.38985547    -0.56600
O294        O  0.95851431  0.13308168  0.42571026    -0.56600
O295        O  0.96266240  0.18215816  0.42669284    -0.55800
O296        O  0.93350044  0.36998764  0.41905177    -0.57000
C297        C  0.89913202  0.32870787  0.42650246     0.75700
O298        O  0.93213458  0.37008305  0.47466247    -0.58100
C299        C  0.94173544  0.38550363  0.42566902     0.75600
C300        C  0.87050720  0.38006008  0.45807292     0.78000
Cd301      Cd  0.90945403  0.36508474  0.44618730     1.37500
O302        O  0.90070382  0.34489375  0.41665642    -0.57000
O303        O  0.87650810  0.38188654  0.44027154    -0.55800
C304        C  0.93811190  0.35213182  0.47491064     0.78000
O305        O  0.88316175  0.37323785  0.47039970    -0.58100
O306        O  0.90152524  0.32992166  0.44520588    -0.56600
O307        O  0.93285437  0.39376487  0.44001100    -0.56600
O308        O  0.92822857  0.33997127  0.46460825    -0.55800
O309        O  0.08200613  0.54519964  0.62452107    -0.57000
C310        C  0.14524292  0.55674200  0.62134600     0.75700
O311        O  0.08707488  0.60084890  0.63042952    -0.58100
C312        C  0.07410081  0.54420828  0.64159653     0.75600
C313        C  0.11742333  0.58890484  0.67087758     0.78000
Cd314      Cd  0.10668790  0.57054545  0.63417270     1.37500
O315        O  0.13326736  0.54560324  0.63062722    -0.57000
O316        O  0.11315217  0.57056430  0.66970031    -0.55800
C317        C  0.07882646  0.59620270  0.61414826     0.78000
O318        O  0.11748331  0.59871306  0.65461467    -0.58100
O319        O  0.13844339  0.57358928  0.61588749    -0.56600
O320        O  0.08321636  0.55300220  0.65547875    -0.56600
O321        O  0.08637656  0.58157251  0.60502472    -0.55800
O322        O  0.09609823  0.58847279  0.85134470    -0.57000
C323        C  0.08776511  0.62135883  0.80684769     0.75700
O324        O  0.03809945  0.58791416  0.84621260    -0.58100
C325        C  0.08865713  0.57993597  0.86643733     0.75600
C326        C  0.05068326  0.64904150  0.85434587     0.78000
Cd327      Cd  0.06712317  0.61002076  0.84247682     1.37500
O328        O  0.09675624  0.62095567  0.82354676    -0.57000
O329        O  0.06770321  0.64327267  0.86029315    -0.55800
C330        C  0.04097803  0.57878369  0.83001055     0.78000
O331        O  0.04101488  0.63624632  0.84460947    -0.58100
O332        O  0.06946207  0.61734952  0.80715905    -0.56600
O333        O  0.07265214  0.58764502  0.87255445    -0.56600
O334        O  0.05420613  0.58590469  0.81881240    -0.55800
O335        O  0.98247787  0.38662607  0.85906573    -0.57000
C336        C  0.98396293  0.44210336  0.83265033     0.75700
O337        O  0.92732173  0.40965792  0.82961638    -0.58100
C338        C  0.96985353  0.37327369  0.86300417     0.75600
C339        C  0.94363285  0.44426934  0.87699774     0.78000
Cd340      Cd  0.95793461  0.41341682  0.84991492     1.37500
O341        O  0.99002826  0.43047113  0.84649024    -0.57000
O342        O  0.96143789  0.43833628  0.87694479    -0.55800
C343        C  0.93637727  0.40482090  0.81385292     0.78000
O344        O  0.93165050  0.43371413  0.86700663    -0.58100
O345        O  0.96706641  0.43841205  0.82539052    -0.56600
O346        O  0.95192019  0.37892178  0.86284985    -0.56600
O347        O  0.95502599  0.40312872  0.81537880    -0.55800
O348        O  0.88125558  0.47745011  0.63190548    -0.57000
C349        C  0.93840218  0.48397996  0.64546719     0.75700
O350        O  0.90662177  0.42470853  0.65772237    -0.58100
C351        C  0.86862723  0.46555108  0.62481554     0.75600
C352        C  0.93969585  0.43727275  0.60809450     0.78000
Cd353      Cd  0.90990663  0.45427853  0.63481117     1.37500
O354        O  0.92692604  0.48668115  0.63057654    -0.57000
O355        O  0.93279658  0.45472290  0.60570559    -0.55800
C356        C  0.90499677  0.43517153  0.67329990     0.78000
O357        O  0.93061399  0.42648923  0.62069046    -0.58100
O358        O  0.93493334  0.46882424  0.65622381    -0.56600
O359        O  0.87544838  0.44856355  0.62018071    -0.56600
O360        O  0.90507823  0.45386085  0.67056883    -0.55800
O361        O  0.97633597  0.86326372  0.62597862    -0.57000
C362        C  0.97631851  0.84637517  0.56814428     0.75700
O363        O  0.91961797  0.84019584  0.60458703    -0.58100
C364        C  0.96564756  0.87181579  0.63874256     0.75600
C365        C  0.93333285  0.88638894  0.56937217     0.78000
Cd366      Cd  0.95056578  0.85935062  0.59935123     1.37500
O367        O  0.98056993  0.86126659  0.57880625    -0.57000
O368        O  0.95099519  0.88793256  0.57560646    -0.55800
C369        C  0.92838754  0.82367588  0.60777770     0.78000
O370        O  0.92244805  0.87475298  0.57947483    -0.58100
O371        O  0.96183221  0.83595584  0.57394882    -0.56600
O372        O  0.94808843  0.87577817  0.63302610    -0.56600
O373        O  0.94714141  0.82411545  0.60798488    -0.55800
O374        O  0.88373481  0.64870956  0.52354701    -0.57000
C375        C  0.94261920  0.65911274  0.52214127     0.75700
O376        O  0.89917423  0.67379954  0.57595362    -0.58100
C377        C  0.87193662  0.63882082  0.53432007     0.75600
C378        C  0.93925700  0.63251922  0.57283852     0.78000
Cd379      Cd  0.91025905  0.65250878  0.54846478     1.37500
O380        O  0.93269902  0.64312732  0.52136574    -0.57000
O381        O  0.93158440  0.62369258  0.55806317    -0.55800
C382        C  0.89930867  0.68978965  0.56565108     0.78000
O383        O  0.93045846  0.64812484  0.57855291    -0.58100
O384        O  0.93553198  0.67295873  0.53262051    -0.56600
O385        O  0.87868552  0.63335448  0.55124746    -0.56600
O386        O  0.90386276  0.68806772  0.54746227    -0.55800
O387        O  0.13600266  0.63993681  0.46320792    -0.57000
C388        C  0.08035370  0.64996230  0.46951314     0.75700
O389        O  0.11620583  0.66227816  0.40939988    -0.58100
C390        C  0.14873504  0.63209432  0.45202651     0.75600
C391        C  0.07888282  0.61924812  0.41765806     0.78000
Cd392      Cd  0.10867880  0.64166943  0.43922660     1.37500
O393        O  0.08851470  0.63296731  0.46839496    -0.57000
O394        O  0.08829909  0.61103891  0.43202349    -0.55800
C395        C  0.11548334  0.67865318  0.41866089     0.78000
O396        O  0.08558745  0.63584781  0.41172381    -0.58100
O397        O  0.08708719  0.66341616  0.45809541    -0.56600
O398        O  0.14240077  0.62613020  0.43525492    -0.56600
O399        O  0.11243617  0.67745934  0.43723906    -0.55800
O400        O  0.03217565  0.84997190  0.36921791    -0.57000
C401        C  0.02749038  0.84380788  0.42814871     0.75700
O402        O  0.08555706  0.83089429  0.38652889    -0.58100
C403        C  0.04089033  0.86253275  0.35820720     0.75600
C404        C  0.07942958  0.87128596  0.42694463     0.78000
Cd405      Cd  0.05604433  0.85002125  0.39733116     1.37500
O406        O  0.02887860  0.86041447  0.41911073    -0.57000
O407        O  0.06867229  0.88076671  0.41439578    -0.55800
C408        C  0.07658535  0.81430400  0.38620769     0.78000
O409        O  0.08143435  0.85283432  0.42370482    -0.58100
O410        O  0.03722516  0.82951321  0.42085410    -0.56600
O411        O  0.05596546  0.87086939  0.36586079    -0.56600
O412        O  0.05833421  0.81476836  0.39036103    -0.55800
O413        O  0.91923025  0.58924993  0.12044788    -0.57000
C414        C  0.93318349  0.62128663  0.16752537     0.75700
O415        O  0.97847592  0.58846020  0.12655102    -0.58100
C416        C  0.92783176  0.57866010  0.10753275     0.75600
C417        C  0.96308847  0.64853689  0.11456611     0.78000
Cd418      Cd  0.94897860  0.60978952  0.12950441     1.37500
O419        O  0.92165310  0.61801285  0.15286748    -0.57000
O420        O  0.94485546  0.64397380  0.11424249    -0.55800
C421        C  0.97552730  0.57906494  0.14275933     0.78000
O422        O  0.97485165  0.63452294  0.11936473    -0.58100
O423        O  0.95154738  0.62021977  0.16395295    -0.56600
O424        O  0.94462609  0.58497879  0.10214463    -0.56600
O425        O  0.96202889  0.58587848  0.15376723    -0.55800
O426        O  0.93529131  0.58479769  0.35104826    -0.57000
C427        C  0.90995121  0.57854246  0.30520216     0.75700
O428        O  0.93658489  0.52805190  0.35161377    -0.58100
C429        C  0.94336312  0.57689888  0.36630337     0.75600
C430        C  0.87455214  0.54243062  0.35239347     0.78000
Cd431      Cd  0.91470682  0.55608635  0.34197663     1.37500
O432        O  0.90709217  0.58677555  0.32188428    -0.57000
O433        O  0.88148680  0.55888969  0.35838475    -0.55800
C434        C  0.94600023  0.52786677  0.33533481     0.78000
O435        O  0.88648284  0.53183400  0.34258910    -0.58100
O436        O  0.91391415  0.56005465  0.30587456    -0.56600
O437        O  0.93526626  0.56116008  0.37287474    -0.56600
O438        O  0.93876233  0.53842931  0.32130735    -0.55800
O439        O  0.08685270  0.43475137  0.14201706    -0.57000
C440        C  0.08026138  0.40153115  0.18391847     0.75700
O441        O  0.03138654  0.43179996  0.13741250    -0.58100
C442        C  0.08162850  0.44063650  0.12476136     0.75600
C443        C  0.04699201  0.37130091  0.13521683     0.78000
Cd444      Cd  0.05984734  0.41089456  0.14727045     1.37500
O445        O  0.08953724  0.40214434  0.16755210    -0.57000
O446        O  0.06357140  0.37823599  0.12972839    -0.55800
C447        C  0.03012761  0.44074420  0.15388742     0.78000
O448        O  0.03609809  0.38324470  0.14464654    -0.58100
O449        O  0.06175029  0.40460337  0.18287575    -0.56600
O450        O  0.06816610  0.43043827  0.11645672    -0.56600
O451        O  0.04093924  0.43403317  0.16795895    -0.55800
O452        O  0.08639106  0.41942936  0.36456266    -0.57000
C453        C  0.11888821  0.42546524  0.32283039     0.75700
O454        O  0.08875180  0.47198818  0.36694634    -0.58100
C455        C  0.08090763  0.42437976  0.38180327     0.75600
C456        C  0.15171350  0.45687119  0.37353439     0.78000
Cd457      Cd  0.11222457  0.44467727  0.36020762     1.37500
O458        O  0.11833764  0.41512519  0.33880125    -0.57000
O459        O  0.14696246  0.43860799  0.37293584    -0.55800
C460        C  0.08424994  0.47481902  0.34875633     0.78000
O461        O  0.13787273  0.46913519  0.36977034    -0.58100
O462        O  0.11754772  0.44417491  0.32479290    -0.56600
O463        O  0.09221637  0.43637418  0.39090427    -0.56600
O464        O  0.09497372  0.46613710  0.33613521    -0.55800
O465        O  0.14586971  0.58247562  0.07736227    -0.57000
C466        C  0.18665457  0.60931424  0.06114045     0.75700
O467        O  0.12838079  0.58408779  0.02559196    -0.58100
C468        C  0.12823995  0.57650663  0.07527015     0.75600
C469        C  0.13538773  0.64540847  0.03456205     0.78000
Cd470      Cd  0.14630621  0.60527627  0.04848429     1.37500
O471        O  0.17244897  0.61274311  0.07293267    -0.57000
O472        O  0.13311469  0.64024565  0.05269312    -0.55800
C473        C  0.14339718  0.57383501  0.02087877     0.78000
O474        O  0.14123339  0.63174809  0.02316352    -0.58100
O475        O  0.18197010  0.60509006  0.04334877    -0.56600
O476        O  0.11738502  0.58694266  0.06361796    -0.56600
O477        O  0.16014716  0.58055723  0.02607264    -0.55800
O478        O  0.37195167  0.59366845  0.07451125    -0.57000
C479        C  0.32715020  0.57728586  0.09770829     0.75700
O480        O  0.37881212  0.53940904  0.06894203    -0.58100
C481        C  0.38824656  0.58852675  0.06688646     0.75600
C482        C  0.37949895  0.54990963  0.13409595     0.78000
Cd483      Cd  0.36699379  0.56289899  0.09418303     1.37500
O484        O  0.34170893  0.58919985  0.09828025    -0.57000
O485        O  0.37767793  0.56818983  0.12942775    -0.55800
C486        C  0.36160478  0.53572885  0.06229805     0.78000
O487        O  0.37698453  0.53779430  0.12000081    -0.58100
O488        O  0.33133617  0.55890193  0.09678535    -0.56600
O489        O  0.39663911  0.57346201  0.07486420    -0.56600
O490        O  0.34725395  0.54194514  0.07252618    -0.55800
O491        O  0.17999938  0.40307248  0.91499510    -0.57000
C492        C  0.13856084  0.44387009  0.91604621     0.75700
O493        O  0.15317572  0.38058610  0.96143027    -0.58100
C494        C  0.19451177  0.40675426  0.92649530     0.75600
C495        C  0.14350598  0.43471330  0.97231210     0.78000
Cd496      Cd  0.15431155  0.41049707  0.93981980     1.37500
O497        O  0.15602122  0.44285971  0.92295902    -0.57000
O498        O  0.16147314  0.42971279  0.96982675    -0.55800
C499        C  0.14555349  0.36867445  0.94905873     0.78000
O500        O  0.13062513  0.42550026  0.96217034    -0.58100
O501        O  0.12849515  0.42788224  0.91755598    -0.56600
O502        O  0.19019645  0.41183070  0.94410737    -0.56600
O503        O  0.14055944  0.37638426  0.93231390    -0.55800
O504        O  0.38469257  0.42907097  0.91312743    -0.57000
C505        C  0.33412982  0.43496009  0.89081504     0.75700
O506        O  0.37540813  0.48799376  0.91256808    -0.58100
C507        C  0.39493795  0.43984862  0.92471077     0.75600
C508        C  0.38178077  0.46858066  0.85228910     0.78000
Cd509      Cd  0.37012778  0.45744375  0.89332629     1.37500
O510        O  0.35055286  0.42637915  0.89441499    -0.57000
O511        O  0.38861164  0.45294324  0.86072776    -0.55800
C512        C  0.35912877  0.48667986  0.92180739     0.78000
O513        O  0.37094258  0.47924241  0.86316866    -0.58100
O514        O  0.33478759  0.45342392  0.88677554    -0.56600
O515        O  0.39641562  0.45796765  0.91946308    -0.56600
O516        O  0.34692202  0.47404227  0.91527025    -0.55800
O517        O  0.53956362  0.65352396  0.08193746    -0.57000
C518        C  0.55826674  0.64891170  0.13963380     0.75700
O519        O  0.59882296  0.64473383  0.07859482    -0.58100
C520        C  0.54095571  0.66918076  0.07131301     0.75600
C521        C  0.59450652  0.69433231  0.10266580     0.78000
Cd522      Cd  0.57132305  0.65875712  0.09929667     1.37500
O523        O  0.55317829  0.66440166  0.13007231    -0.57000
O524        O  0.57578670  0.69413869  0.10182197    -0.55800
C525        C  0.58746057  0.63383304  0.06822748     0.78000
O526        O  0.60314082  0.67745248  0.10304041    -0.58100
O527        O  0.56942552  0.63683059  0.13049824    -0.56600
O528        O  0.55477919  0.68099918  0.07584576    -0.56600
O529        O  0.56998412  0.63195701  0.07464705    -0.55800
O530        O  0.58844807  0.88506666  0.02456927    -0.57000
C531        C  0.64848225  0.88699864  0.03903628     0.75700
O532        O  0.58954496  0.87632934  0.08256364    -0.58100
C533        C  0.57898721  0.86883318  0.02337694     0.75600
C534        C  0.62011287  0.83367789  0.06603811     0.78000
Cd535      Cd  0.60979079  0.87328279  0.05221916     1.37500
O536        O  0.63581085  0.87925452  0.02756121    -0.57000
O537        O  0.61506546  0.83748712  0.04816094    -0.55800
C538        C  0.58041950  0.89209547  0.07735167     0.78000
O539        O  0.62073151  0.84848383  0.07764836    -0.58100
O540        O  0.64253506  0.89061147  0.05655061    -0.56600
O541        O  0.58555291  0.85431553  0.03370943    -0.56600
O542        O  0.58760165  0.90139417  0.06254424    -0.55800
O543        O  0.38617079  0.87815904  0.95817439    -0.57000
C544        C  0.44281799  0.87074173  0.96166563     0.75700
O545        O  0.40372802  0.85030894  0.90655382    -0.58100
C546        C  0.37240509  0.88455772  0.94690460     0.75600
C547        C  0.43921791  0.89751635  0.90915717     0.78000
Cd548      Cd  0.41172810  0.87470387  0.93299173     1.37500
O549        O  0.43293625  0.88678242  0.96008036    -0.57000
O550        O  0.42934119  0.90582978  0.92278412    -0.55800
C551        C  0.40573992  0.83528010  0.91809222     0.78000
O552        O  0.43363244  0.88018352  0.90449913    -0.58100
O553        O  0.43640666  0.85607347  0.95186934    -0.56600
O554        O  0.37722300  0.88849735  0.92903369    -0.56600
O555        O  0.40956671  0.83897075  0.93618624    -0.55800
O556        O  0.42938323  0.65174080  0.92343639    -0.57000
C557        C  0.43841001  0.69451733  0.89279320     0.75700
O558        O  0.48457074  0.64785334  0.92467841    -0.58100
C559        C  0.43499579  0.63505056  0.93049189     0.75600
C560        C  0.47124124  0.64573261  0.86196835     0.78000
Cd561      Cd  0.45765520  0.65730595  0.90144518     1.37500
O562        O  0.42867432  0.67837001  0.89281844    -0.57000
O563        O  0.45442831  0.64046943  0.86845533    -0.55800
C564        C  0.48513317  0.66466356  0.93309940     0.78000
O565        O  0.48218301  0.65469882  0.87434306    -0.58100
O566        O  0.45689909  0.69301930  0.89583103    -0.56600
O567        O  0.44917198  0.62670290  0.92144542    -0.56600
O568        O  0.47519414  0.67852060  0.92481537    -0.55800
O569        O  0.87993747  0.63571421  0.96854912    -0.57000
C570        C  0.86891336  0.57803653  0.97053115     0.75700
O571        O  0.85225175  0.61478653  0.91362746    -0.58100
C572        C  0.88245643  0.65023847  0.95667739     0.75600
C573        C  0.90078043  0.58251270  0.92084102     0.78000
Cd574      Cd  0.87483011  0.60965674  0.94250170     1.37500
O575        O  0.88462545  0.58828085  0.97066534    -0.57000
O576        O  0.90647452  0.59106338  0.93663340    -0.55800
C577        C  0.83660455  0.61415370  0.92397652     0.78000
O578        O  0.88497165  0.58938761  0.91310562    -0.58100
O579        O  0.85492991  0.58435116  0.95944600    -0.56600
O580        O  0.88341039  0.64580262  0.93837041    -0.56600
O581        O  0.83899003  0.61211713  0.94265579    -0.55800
O582        O  0.64255037  0.59965324  0.92163952    -0.57000
C583        C  0.69570386  0.58591110  0.89498417     0.75700
O584        O  0.65829795  0.53896943  0.92376597    -0.58100
C585        C  0.62962710  0.58956683  0.93091801     0.75600
C586        C  0.64336107  0.55820353  0.86493624     0.78000
Cd587      Cd  0.65717738  0.57054213  0.90418514     1.37500
O588        O  0.68112418  0.59759079  0.89760548    -0.57000
O589        O  0.64457523  0.57642922  0.86960048    -0.55800
C590        C  0.66966244  0.54597484  0.93715918     0.78000
O591        O  0.64709231  0.54573823  0.87881717    -0.58100
O592        O  0.69191761  0.56743319  0.89562679    -0.56600
O593        O  0.62731623  0.57183521  0.92508487    -0.56600
O594        O  0.67641923  0.56321909  0.93388944    -0.55800
O595        O  0.64581705  0.48221067  0.12866063    -0.57000
C596        C  0.66367625  0.48736641  0.07456164     0.75700
O597        O  0.67410910  0.42820885  0.11343363    -0.58100
C598        C  0.63875675  0.47049932  0.14165380     0.75600
C599        C  0.63491003  0.43451044  0.07059604     0.78000
Cd600      Cd  0.65360062  0.45715461  0.10292106     1.37500
O601        O  0.64601625  0.48550536  0.08060502    -0.57000
O602        O  0.62441493  0.44544501  0.08174416    -0.55800
C603        C  0.69015279  0.43800410  0.11418351     0.78000
O604        O  0.65270535  0.43224000  0.07616508    -0.58100
O605        O  0.67670397  0.47729879  0.08387258    -0.56600
O606        O  0.63659539  0.45259651  0.13606922    -0.56600
O607        O  0.68869493  0.45658740  0.11106437    -0.55800
O608        O  0.85506550  0.37996772  0.02739771    -0.57000
C609        C  0.85603385  0.43669386  0.01990749     0.75700
O610        O  0.83649360  0.39681486  0.07971891    -0.58100
C611        C  0.86591346  0.36806905  0.03743600     0.75600
C612        C  0.87503198  0.44005225  0.07278339     0.78000
Cd613      Cd  0.85579000  0.40801227  0.05077693     1.37500
O614        O  0.87121641  0.42635871  0.02429418    -0.57000
O615        O  0.88565341  0.42694048  0.06436041    -0.55800
C616        C  0.81976992  0.39956629  0.07131445     0.78000
O617        O  0.85682962  0.43592021  0.07407256    -0.58100
O618        O  0.83953398  0.43086734  0.02670427    -0.56600
O619        O  0.87344201  0.37514952  0.05329374    -0.56600
O620        O  0.81996197  0.40584310  0.05340718    -0.55800
O621        O  0.58120665  0.14544573  0.94376457    -0.57000
C622        C  0.61297774  0.19231729  0.94550208     0.75700
O623        O  0.58459702  0.16160620  0.00355095    -0.58100
C624        C  0.56990050  0.13513328  0.95477328     0.75600
C625        C  0.64173616  0.14764148  0.98530074     0.78000
Cd626      Cd  0.60206492  0.15974224  0.97137947     1.37500
O627        O  0.61175353  0.17477252  0.93871966    -0.57000
O628        O  0.63237186  0.13722743  0.97267822    -0.55800
C629        C  0.57544665  0.17765581  0.99911257     0.78000
O630        O  0.63200971  0.16174224  0.99284425    -0.58100
O631        O  0.60928372  0.19422679  0.96383383    -0.56600
O632        O  0.57506352  0.13409754  0.97297110    -0.56600
O633        O  0.58020783  0.18601220  0.98286717    -0.55800
O634        O  0.59864217  0.36974907  0.92497408    -0.57000
C635        C  0.58806292  0.32400822  0.89420454     0.75700
O636        O  0.53934119  0.36461426  0.92403814    -0.58100
C637        C  0.59059826  0.38401888  0.93411700     0.75600
C638        C  0.55592002  0.37624875  0.86515382     0.78000
Cd639      Cd  0.56955502  0.36119464  0.90397255     1.37500
O640        O  0.59812607  0.33984822  0.89581607    -0.57000
O641        O  0.57388892  0.37763597  0.87061697    -0.55800
C642        C  0.54228473  0.34865925  0.93397817     0.78000
O643        O  0.54423264  0.36937596  0.87813826    -0.58100
O644        O  0.56945103  0.32595500  0.89561507    -0.56600
O645        O  0.57423922  0.39008152  0.92686278    -0.56600
O646        O  0.55642319  0.33776584  0.92831769    -0.55800
O647        O  0.47370132  0.36101853  0.12386099    -0.57000
C648        C  0.48143941  0.34564405  0.06816506     0.75700
O649        O  0.41970646  0.34212514  0.10049655    -0.58100
C650        C  0.46353415  0.37252917  0.13453971     0.75600
C651        C  0.43589447  0.38512760  0.06179942     0.78000
Cd652      Cd  0.45144186  0.35990040  0.09443832     1.37500
O653        O  0.48392891  0.36138619  0.07816381    -0.57000
O654        O  0.45247005  0.38829216  0.07012640    -0.55800
C655        C  0.42795115  0.32534276  0.10367754     0.78000
O656        O  0.42515386  0.37227269  0.07046220    -0.58100
O657        O  0.46610630  0.33563597  0.07211319    -0.56600
O658        O  0.44811221  0.37970010  0.12615130    -0.56600
O659        O  0.44667509  0.32509092  0.10297521    -0.55800
O660        O  0.42630038  0.13852037  0.08742458    -0.57000
C661        C  0.39201477  0.18905739  0.08044613     0.75700
O662        O  0.42828195  0.16200819  0.03134672    -0.58100
C663        C  0.43635917  0.12783619  0.07568559     0.75600
C664        C  0.36959025  0.14186594  0.04170466     0.78000
Cd665      Cd  0.40646411  0.15493900  0.06006435     1.37500
O666        O  0.39727081  0.17369004  0.09047376    -0.57000
O667        O  0.37279954  0.13963636  0.06028279    -0.55800
C668        C  0.43777451  0.17569011  0.04016839     0.78000
O669        O  0.38413388  0.14803949  0.03158079    -0.58100
O670        O  0.39233820  0.18750483  0.06165386    -0.56600
O671        O  0.42969991  0.12675107  0.05802580    -0.56600
O672        O  0.43108855  0.18099451  0.05681435    -0.55800
C673        C  0.38511878  0.24435875  0.08235440    -0.01200
C674        C  0.39082860  0.24852711  0.10216932     0.07400
C675        C  0.39207162  0.23270781  0.11607608    -0.07100
C676        C  0.39059675  0.21282458  0.10989745     0.04900
C677        C  0.38749046  0.20867372  0.08947622    -0.14400
C678        C  0.38322173  0.22462468  0.07632706    -0.07700
C679        C  0.39890588  0.26846706  0.10736504     0.05800
C680        C  0.38745867  0.28571433  0.10383746    -0.08800
C681        C  0.39618911  0.30468291  0.10365295     0.00800
C682        C  0.41678929  0.30657412  0.10727133     0.00700
C683        C  0.42768762  0.28944908  0.11278986    -0.12400
C684        C  0.41903887  0.27057569  0.11280946     0.01100
C685        C  0.38380720  0.32163129  0.09863502     0.40500
C686        C  0.43163408  0.25354494  0.11705936     0.37100
C687        C  0.38311133  0.25982178  0.06728256     0.36800
C688        C  0.39352273  0.19718967  0.12460330     0.37600
N689        N  0.37379521  0.33516860  0.09463343    -0.43200
N690        N  0.44171089  0.23993183  0.12058880    -0.43700
N691        N  0.39580889  0.18471191  0.13647294    -0.41000
N692        N  0.38143722  0.27210612  0.05511923    -0.42500
H693        H  0.38006975  0.22178906  0.06072514     0.13700
H694        H  0.39576744  0.23585033  0.13149597     0.10200
H695        H  0.37188470  0.28423614  0.10004427     0.11200
H696        H  0.44338186  0.29060846  0.11616049     0.17100
C697        C  0.51263358  0.35746436  0.98033348    -0.01200
C698        C  0.51743602  0.34040789  0.99194548     0.07400
C699        C  0.52733517  0.32445640  0.98303169    -0.07100
C700        C  0.53402148  0.32600586  0.96335451     0.04900
C701        C  0.53116435  0.34403055  0.95243625    -0.14400
C702        C  0.51969171  0.35924039  0.96086906    -0.07700
C703        C  0.51189832  0.33900103  0.01327391     0.05800
C704        C  0.49892323  0.32395562  0.01946056    -0.08800
C705        C  0.49045411  0.32438600  0.03843850     0.00800
C706        C  0.49457212  0.34051173  0.05131173     0.00700
C707        C  0.50947613  0.35408507  0.04593397    -0.12400
C708        C  0.51833644  0.35326392  0.02718903     0.01100
C709        C  0.47708811  0.30849351  0.04384940     0.40500
C710        C  0.53355632  0.36756878  0.02231848     0.37100
C711        C  0.50050621  0.37336300  0.98808970     0.36800
C712        C  0.54382403  0.30891196  0.95490512     0.37600
N713        N  0.46649038  0.29565881  0.04818372    -0.43200
N714        N  0.54577571  0.37899017  0.01841198    -0.43700
N715        N  0.55154567  0.29515956  0.94809438    -0.41000
N716        N  0.49076968  0.38605389  0.99433745    -0.42500
H717        H  0.51687395  0.37295067  0.95257697     0.13700
H718        H  0.53027030  0.31095566  0.99163473     0.10200
H719        H  0.49462506  0.31241721  0.00908642     0.11200
H720        H  0.51345083  0.36608854  0.05588994     0.17100
C721        C  0.53097399  0.17483856  0.03200038    -0.01200
C722        C  0.51931160  0.19043285  0.02386743     0.07400
C723        C  0.52818709  0.20489235  0.01173409    -0.07100
C724        C  0.54783501  0.20252056  0.00556224     0.04900
C725        C  0.55847247  0.18496507  0.01097639    -0.14400
C726        C  0.55037183  0.17209311  0.02540328    -0.07700
C727        C  0.49746357  0.18971324  0.02521690     0.05800
C728        C  0.48747153  0.20195339  0.03860485    -0.08800
C729        C  0.46724022  0.19911698  0.04226169     0.00800
C730        C  0.45690404  0.18346561  0.03264547     0.00700
C731        C  0.46663597  0.17263419  0.01780578    -0.12400
C732        C  0.48671426  0.17569966  0.01400226     0.01100
C733        C  0.45769477  0.21217108  0.05627473     0.40500
C734        C  0.49625158  0.16378123  0.99901226     0.37100
C735        C  0.52289966  0.16086486  0.04627508     0.36800
C736        C  0.55633068  0.21792151  0.99311200     0.37600
N737        N  0.45003730  0.22270606  0.06742458    -0.43200
N738        N  0.50398724  0.15438011  0.98695781    -0.43700
N739        N  0.56316622  0.23038104  0.98329933    -0.41000
N740        N  0.51646217  0.14985619  0.05791333    -0.42500
H741        H  0.55855707  0.15899225  0.03040332     0.13700
H742        H  0.51941570  0.21735164  0.00610339     0.10200
H743        H  0.49564338  0.21316994  0.04676083     0.11200
H744        H  0.45892959  0.16086570  0.00998541     0.17100
C745        C  0.62068516  0.24638911  0.93223004    -0.01200
C746        C  0.61789498  0.24647493  0.91137256     0.07400
C747        C  0.61717018  0.22825755  0.90129256    -0.07100
C748        C  0.61711574  0.21009523  0.91190378     0.04900
C749        C  0.61757794  0.21013638  0.93301812    -0.14400
C750        C  0.62052494  0.22835037  0.94280302    -0.07700
C751        C  0.61171507  0.26512570  0.90092140     0.05800
C752        C  0.62485658  0.28122997  0.89966945    -0.08800
C753        C  0.61786207  0.30054152  0.89533469     0.00800
C754        C  0.59727327  0.30390532  0.89258671     0.00700
C755        C  0.58463164  0.28732337  0.89150732    -0.12400
C756        C  0.59165530  0.26808316  0.89562964     0.01100
C757        C  0.63201556  0.31661795  0.89495469     0.40500
C758        C  0.57760780  0.25187947  0.89618965     0.37100
C759        C  0.62199575  0.26469255  0.94334926     0.36800
C760        C  0.61542418  0.19190129  0.90073673     0.37600
N761        N  0.64336745  0.32950287  0.89453800    -0.43200
N762        N  0.56646506  0.23881240  0.89663216    -0.43700
N763        N  0.61415808  0.17734190  0.89171159    -0.41000
N764        N  0.62308629  0.27934154  0.95225499    -0.42500
H765        H  0.62158224  0.22868730  0.95894594     0.13700
H766        H  0.61529962  0.22829975  0.88521014     0.10200
H767        H  0.64037244  0.27890822  0.90337787     0.11200
H768        H  0.56889273  0.28947259  0.88885753     0.17100
C769        C  0.63656797  0.41437030  0.01775385    -0.01200
C770        C  0.61636258  0.41259207  0.01238072     0.07400
C771        C  0.60203623  0.41719141  0.02682143    -0.07100
C772        C  0.60748841  0.42399559  0.04593515     0.04900
C773        C  0.62773376  0.42588297  0.05124431    -0.14400
C774        C  0.64199459  0.42072804  0.03692123    -0.07700
C775        C  0.61007298  0.40584400  0.99190945     0.05800
C776        C  0.61750855  0.38778627  0.98449344    -0.08800
C777        C  0.61228304  0.38096815  0.96541587     0.00800
C778        C  0.59891411  0.39211474  0.95318333     0.00700
C779        C  0.59147027  0.41018703  0.96061360    -0.12400
C780        C  0.59696650  0.41712088  0.97961306     0.01100
C781        C  0.62025687  0.36198056  0.95931108     0.40500
C782        C  0.58907453  0.43600704  0.98601858     0.37100
C783        C  0.65211683  0.41056178  0.00359443     0.36800
C784        C  0.59196344  0.42876577  0.05976452     0.37600
N785        N  0.62664789  0.34676010  0.95444962    -0.43200
N786        N  0.58267870  0.45111898  0.99116905    -0.43700
N787        N  0.57944037  0.43259230  0.07078750    -0.41000
N788        N  0.66453836  0.40745107  0.99223049    -0.42500
H789        H  0.65761762  0.42231697  0.04043747     0.13700
H790        H  0.58646334  0.41553038  0.02312732     0.10200
H791        H  0.62730248  0.37875666  0.99381975     0.11200
H792        H  0.58110054  0.41889367  0.95162588     0.17100
C793        C  0.72900771  0.39749430  0.11261495    -0.01200
C794        C  0.74654693  0.40873649  0.11165563     0.07400
C795        C  0.74576836  0.42925191  0.11530048    -0.07100
C796        C  0.72765431  0.43901936  0.11786418     0.04900
C797        C  0.70974557  0.42807411  0.11683056    -0.14400
C798        C  0.71081063  0.40717045  0.11536005    -0.07700
C799        C  0.76503479  0.40067855  0.10305057     0.05800
C800        C  0.76491672  0.39621676  0.08266712    -0.08800
C801        C  0.78263664  0.39430645  0.07218726     0.00800
C802        C  0.80094910  0.39685762  0.08222695     0.00700
C803        C  0.80100771  0.39915912  0.10305062    -0.12400
C804        C  0.78322568  0.40124309  0.11346480     0.01100
C805        C  0.78148275  0.39041087  0.05106333     0.40500
C806        C  0.78397719  0.40491184  0.13462622     0.37100
C807        C  0.72926474  0.37617523  0.10992142     0.36800
C808        C  0.72808242  0.46039721  0.12028972     0.37600
N809        N  0.78047705  0.38728153  0.03414365    -0.43200
N810        N  0.78460459  0.40781718  0.15160007    -0.43700
N811        N  0.72862671  0.47752871  0.12214036    -0.41000
N812        N  0.72941760  0.35906914  0.10782798    -0.42500
H813        H  0.69732410  0.39844569  0.11496628     0.13700
H814        H  0.75928302  0.43794296  0.11464210     0.10200
H815        H  0.75092550  0.39564882  0.07461007     0.11200
H816        H  0.81493814  0.40072753  0.11104048     0.17100
C817        C  0.66119015  0.51159840  0.98109719    -0.01200
C818        C  0.67369531  0.51990279  0.99574434     0.07400
C819        C  0.68701348  0.53488676  0.99031447    -0.07100
C820        C  0.68697915  0.54280706  0.97091606     0.04900
C821        C  0.67347427  0.53544325  0.95642912    -0.14400
C822        C  0.66125584  0.51930798  0.96162277    -0.07700
C823        C  0.67223665  0.51399057  0.01702663     0.05800
C824        C  0.68798539  0.50370301  0.02619542    -0.08800
C825        C  0.68629763  0.49630796  0.04572447     0.00800
C826        C  0.66837956  0.49908978  0.05631929     0.00700
C827        C  0.65331112  0.51083219  0.04755160    -0.12400
C828        C  0.65517646  0.51836166  0.02814585     0.01100
C829        C  0.70283648  0.48509652  0.05392399     0.40500
C830        C  0.63928551  0.53031601  0.01977631     0.37100
C831        C  0.64765706  0.49564356  0.98589186     0.36800
C832        C  0.70043931  0.55899566  0.96675166     0.37600
N833        N  0.71611095  0.47613760  0.06047335    -0.43200
N834        N  0.62663147  0.53993335  0.01295640    -0.43700
N835        N  0.71118974  0.57203709  0.96358794    -0.41000
N836        N  0.63672898  0.48294316  0.98974714    -0.42500
H837        H  0.65090221  0.51337819  0.95077171     0.13700
H838        H  0.69683180  0.54105734  0.00153672     0.10200
H839        H  0.70135027  0.50082837  0.01780280     0.11200
H840        H  0.63966425  0.51348496  0.05554199     0.17100
C841        C  0.84626833  0.53134927  0.99233076    -0.01200
C842        C  0.86292478  0.51853289  0.99372045     0.07400
C843        C  0.88170660  0.52624621  0.98930395    -0.07100
C844        C  0.88419516  0.54623131  0.98396197     0.04900
C845        C  0.86742438  0.55865465  0.98112920    -0.14400
C846        C  0.84859213  0.55104920  0.98558912    -0.07700
C847        C  0.86134365  0.49716499  0.99986261     0.05800
C848        C  0.84739896  0.48470093  0.99045257    -0.08800
C849        C  0.84544908  0.46461559  0.99621472     0.00800
C850        C  0.85836482  0.45653001  0.01077870     0.00700
C851        C  0.87274300  0.46871067  0.01955024    -0.12400
C852        C  0.87404404  0.48887184  0.01466757     0.01100
C853        C  0.83037818  0.45260240  0.98688488     0.40500
C854        C  0.88797175  0.50074589  0.02587554     0.37100
C855        C  0.82670071  0.52482069  0.99790910     0.36800
C856        C  0.90418250  0.55330507  0.98130692     0.37600
N857        N  0.81827787  0.44299733  0.97938364    -0.43200
N858        N  0.89926287  0.51009436  0.03483678    -0.43700
N859        N  0.92029328  0.55890658  0.97975190    -0.41000
N860        N  0.81099860  0.51963410  0.00236578    -0.42500
H861        H  0.83561510  0.56048909  0.98365796     0.13700
H862        H  0.89461519  0.51657496  0.99000874     0.19800
H863        H  0.83791260  0.49068737  0.97869899     0.11200
H864        H  0.88232712  0.46269639  0.03124958     0.17100
C865        C  0.75158635  0.58425228  0.89407877    -0.01200
C866        C  0.75655431  0.60455044  0.89570949     0.07400
C867        C  0.74155369  0.61902426  0.89417786    -0.07100
C868        C  0.72159916  0.61347877  0.89247194     0.04900
C869        C  0.71642169  0.59302445  0.89260521    -0.14400
C870        C  0.73171034  0.57868007  0.89253395    -0.07700
C871        C  0.77685710  0.61052954  0.90170114     0.05800
C872        C  0.79263577  0.60794321  0.88848470    -0.08800
C873        C  0.81231688  0.61025159  0.89494107     0.00800
C874        C  0.81637281  0.61497815  0.91510730     0.00700
C875        C  0.80040479  0.61877093  0.92787519    -0.12400
C876        C  0.78082878  0.61662317  0.92136766     0.01100
C877        C  0.82790122  0.60662412  0.88080056     0.40500
C878        C  0.76508674  0.61953538  0.93552965     0.37100
C879        C  0.76652640  0.56878365  0.89531169     0.36800
C880        C  0.70688556  0.62911874  0.89111566     0.37600
N881        N  0.84034164  0.60375947  0.86939159    -0.43200
N882        N  0.75245238  0.62187577  0.94684177    -0.43700
N883        N  0.69513535  0.64170074  0.88992176    -0.41000
N884        N  0.77849983  0.55639996  0.89625897    -0.42500
H885        H  0.72816313  0.56292564  0.89229019     0.13700
H886        H  0.74541095  0.63467354  0.89514969     0.10200
H887        H  0.78956996  0.60333941  0.87331441     0.11200
H888        H  0.80319013  0.62272385  0.94328651     0.17100
C889        C  0.41060886  0.77927516  0.91975129    -0.01200
C890        C  0.40937678  0.77421694  0.89946744     0.07400
C891        C  0.40492214  0.78904977  0.88521581    -0.07100
C892        C  0.40255950  0.80901531  0.89086396     0.04900
C893        C  0.40479563  0.81430528  0.91116681    -0.14400
C894        C  0.40814892  0.79907094  0.92541960    -0.07700
C895        C  0.41502231  0.75394766  0.89305708     0.05800
C896        C  0.40237868  0.73792487  0.89721952    -0.08800
C897        C  0.40913022  0.71819763  0.89580207     0.00800
C898        C  0.42898824  0.71439987  0.89031799     0.00700
C899        C  0.44105255  0.73051817  0.88469958    -0.12400
C900        C  0.43424225  0.75015420  0.88600486     0.01100
C901        C  0.39583533  0.70238214  0.90157965     0.40500
C902        C  0.44774235  0.76621672  0.88150089     0.37100
C903        C  0.41580334  0.76461440  0.93489411     0.36800
C904        C  0.39853248  0.82366071  0.87541316     0.37600
N905        N  0.38514714  0.68972879  0.90620983    -0.43200
N906        N  0.45853671  0.77910557  0.87790691    -0.43700
N907        N  0.39527789  0.83534217  0.86296697    -0.41000
N908        N  0.42008225  0.75288438  0.94698238    -0.42500
H909        H  0.40980361  0.80267817  0.94107094     0.13700
H910        H  0.40400473  0.78510910  0.86958913     0.10200
H911        H  0.38759548  0.74088623  0.90270976     0.11200
H912        H  0.45622170  0.72784612  0.88019095     0.17100
C913        C  0.52713301  0.85243668  0.01134691    -0.01200
C914        C  0.52133123  0.86605483  0.99623482     0.07400
C915        C  0.53508583  0.87997134  0.98901986    -0.07100
C916        C  0.55432536  0.88076154  0.99693921     0.04900
C917        C  0.56011734  0.86716806  0.01217503    -0.14400
C918        C  0.54645154  0.85286306  0.01887556    -0.07700
C919        C  0.50076585  0.86665873  0.98837576     0.05800
C920        C  0.48970380  0.88425311  0.99037831    -0.08800
C921        C  0.47046034  0.88583114  0.98259762     0.00800
C922        C  0.46179195  0.86931777  0.97289656     0.00700
C923        C  0.47281825  0.85153625  0.97143748    -0.12400
C924        C  0.49222815  0.85022015  0.97868572     0.01100
C925        C  0.46048171  0.90483496  0.98414367     0.40500
C926        C  0.50342533  0.83224942  0.97497211     0.37100
C927        C  0.51324354  0.83869650  0.02024501     0.36800
C928        C  0.56763637  0.89573102  0.98924483     0.37600
N929        N  0.45261617  0.92014504  0.98527890    -0.43200
N930        N  0.51238531  0.81784977  0.97200004    -0.43700
N931        N  0.57822165  0.90779381  0.98304766    -0.41000
N932        N  0.50212466  0.82766934  0.02734672    -0.42500
H933        H  0.55048909  0.84262610  0.03088645     0.13700
H934        H  0.53064004  0.89046968  0.97738145     0.10200
H935        H  0.49630573  0.89695014  0.99776640     0.11200
H936        H  0.46665738  0.83882616  0.96371747     0.17100
C937        C  0.58201332  0.61460897  0.01542579    -0.01200
C938        C  0.60174421  0.61350573  0.00881478     0.07400
C939        C  0.61709728  0.61836034  0.02217358    -0.07100
C940        C  0.61306885  0.62438229  0.04178688     0.04900
C941        C  0.59326274  0.62523277  0.04857596    -0.14400
C942        C  0.57798309  0.62006353  0.03513094    -0.07700
C943        C  0.60670123  0.60778255  0.98793676     0.05800
C944        C  0.61508739  0.62202505  0.97507027    -0.08800
C945        C  0.62114028  0.61695513  0.95574822     0.00800
C946        C  0.61932551  0.59706924  0.94907393     0.00700
C947        C  0.60992884  0.58311563  0.96168591    -0.12400
C948        C  0.60358662  0.58830178  0.98084481     0.01100
C949        C  0.62915587  0.63250565  0.94318785     0.40500
C950        C  0.59451292  0.57317890  0.99320598     0.37100
C951        C  0.56559771  0.61139064  0.00190199     0.36800
C952        C  0.62955584  0.62991516  0.05436909     0.37600
N953        N  0.63543587  0.64503864  0.93309121    -0.43200
N954        N  0.58703688  0.56113612  0.00305009    -0.43700
N955        N  0.64284688  0.63444540  0.06432485    -0.41000
N956        N  0.55246847  0.60894954  0.99100284    -0.42500
H957        H  0.56264307  0.62121682  0.03968521     0.13700
H958        H  0.63231662  0.61769834  0.01714277     0.10200
H959        H  0.61705173  0.63716808  0.98022738     0.11200
H960        H  0.60827427  0.56779440  0.95696328     0.17100
C961        C  0.49612317  0.68726820  0.98320773    -0.01200
C962        C  0.50740292  0.67219620  0.99267502     0.07400
C963        C  0.51292479  0.65525615  0.98197861    -0.07100
C964        C  0.50688667  0.65284972  0.96213535     0.04900
C965        C  0.49511158  0.66773804  0.95263295    -0.14400
C966        C  0.49026778  0.68505036  0.96331557    -0.07700
C967        C  0.51375289  0.67372907  0.01373822     0.05800
C968        C  0.50571180  0.66059313  0.02789503    -0.08800
C969        C  0.51311117  0.65986934  0.04746436     0.00800
C970        C  0.52888131  0.67254776  0.05303464     0.00700
C971        C  0.53581706  0.68668096  0.03909769    -0.12400
C972        C  0.52862347  0.68715063  0.01953191     0.01100
C973        C  0.50466542  0.64553970  0.06116041     0.40500
C974        C  0.53783123  0.70042711  0.00528882     0.37100
C975        C  0.48957730  0.70463764  0.99391690     0.36800
C976        C  0.51274271  0.63479551  0.95219846     0.37600
N977        N  0.49784881  0.63401951  0.07207219    -0.43200
N978        N  0.54528807  0.71099261  0.99386621    -0.43700
N979        N  0.51746252  0.62025929  0.94435826    -0.41000
N980        N  0.48429919  0.71850347  0.00255425    -0.42500
H981        H  0.48103514  0.69653210  0.95646811     0.13700
H982        H  0.52181259  0.64375791  0.98928141     0.10200
H983        H  0.49407983  0.65041404  0.02342553     0.11200
H984        H  0.54795303  0.69648704  0.04299374     0.17100
C985        C  0.60140625  0.74980454  0.10425177    -0.01200
C986        C  0.61921074  0.75243866  0.09372807     0.07400
C987        C  0.63054801  0.73562553  0.08875283    -0.07100
C988        C  0.62367181  0.71627727  0.09297169     0.04900
C989        C  0.60508724  0.71368057  0.10224114    -0.14400
C990        C  0.59461884  0.73061004  0.10851084    -0.07700
C991        C  0.62444265  0.77247779  0.08576569     0.05800
C992        C  0.62924082  0.78773081  0.09908569    -0.08800
C993        C  0.62931295  0.80775599  0.09280604     0.00800
C994        C  0.62407924  0.81279619  0.07286421     0.00700
C995        C  0.62104859  0.79725627  0.05922703    -0.12400
C996        C  0.62129495  0.77727402  0.06547184     0.01100
C997        C  0.63435677  0.82268066  0.10731559     0.40500
C998        C  0.61701044  0.76203436  0.05101220     0.37100
C999        C  0.58893297  0.76654484  0.10929568     0.36800
C1000       C  0.63519331  0.69951100  0.08622136     0.37600
N1001       N  0.63855379  0.83458695  0.11896312    -0.43200
N1002       N  0.61369904  0.74979826  0.03942391    -0.43700
N1003       N  0.64443140  0.68606957  0.08080283    -0.41000
N1004       N  0.57893890  0.77998030  0.11322106    -0.42500
H1005       H  0.58041842  0.72887434  0.11578285     0.13700
H1006       H  0.64425686  0.73761855  0.08065861     0.10200
H1007       H  0.63197036  0.78403263  0.11466109     0.11200
H1008       H  0.61756087  0.80068678  0.04374640     0.17100
C1009       C  0.40659349  0.40362759  0.96751760    -0.01200
C1010       C  0.41319187  0.41638608  0.98283387     0.07400
C1011       C  0.41545731  0.43674247  0.97831685    -0.07100
C1012       C  0.41057409  0.44461079  0.95935634     0.04900
C1013       C  0.40326648  0.43195319  0.94412237    -0.14400
C1014       C  0.40165022  0.41143861  0.94853905    -0.07700
C1015       C  0.41842594  0.40890733  0.00344976     0.05800
C1016       C  0.43781890  0.41152126  0.01063984    -0.08800
C1017       C  0.44361862  0.40472960  0.02974222     0.00800
C1018       C  0.42985554  0.39487240  0.04234022     0.00700
C1019       C  0.41027066  0.39270756  0.03524638    -0.12400
C1020       C  0.40445010  0.39980321  0.01620941     0.01100
C1021       C  0.46402355  0.40766114  0.03558391     0.40500
C1022       C  0.38390369  0.39807346  0.01035345     0.37100
C1023       C  0.40499270  0.38238707  0.97076812     0.36800
C1024       C  0.41265938  0.46586534  0.95641137     0.37600
N1025       N  0.48040230  0.41010489  0.04014315    -0.43200
N1026       N  0.36741671  0.39672757  0.00570520    -0.43700
N1027       N  0.41438691  0.48291651  0.95423835    -0.41000
N1028       N  0.40363067  0.36534923  0.97328892    -0.42500
H1029       H  0.39614909  0.40140820  0.93720931     0.13700
H1030       H  0.42074790  0.44665866  0.98985500     0.10200
H1031       H  0.44863207  0.41870422  0.00110514     0.11200
H1032       H  0.39940222  0.38537210  0.04458386     0.17100
C1033       C  0.24987524  0.41507463  0.92658977    -0.01200
C1034       C  0.25549583  0.40828749  0.90761244     0.07400
C1035       C  0.24115432  0.39972338  0.89514071    -0.07100
C1036       C  0.22126679  0.39855987  0.90099087     0.04900
C1037       C  0.21549141  0.40590850  0.91983739    -0.14400
C1038       C  0.23014556  0.41367194  0.93256333    -0.07700
C1039       C  0.27590220  0.41170599  0.90016528     0.05800
C1040       C  0.29203687  0.40325262  0.91059886    -0.08800
C1041       C  0.31143292  0.40959897  0.90690106     0.00800
C1042       C  0.31488155  0.42457176  0.89232242     0.00700
C1043       C  0.29885744  0.43182969  0.88085488    -0.12400
C1044       C  0.27950626  0.42548291  0.88457866     0.01100
C1045       C  0.32712485  0.40191396  0.91962886     0.40500
C1046       C  0.26349090  0.43439225  0.87313757     0.37100
C1047       C  0.26385392  0.42466079  0.93977382     0.36800
C1048       C  0.20723265  0.39005770  0.88715957     0.37600
N1049       N  0.33964776  0.39581088  0.92992252    -0.43200
N1050       N  0.25065132  0.44145711  0.86391786    -0.43700
N1051       N  0.19604874  0.38327034  0.87598200    -0.41000
N1052       N  0.27506977  0.43236959  0.95028376    -0.42500
H1053       H  0.22610978  0.41941008  0.94703955     0.13700
H1054       H  0.24544221  0.39442659  0.88056422     0.10200
H1055       H  0.28932024  0.39258927  0.92254008     0.11200
H1056       H  0.30134434  0.44321514  0.86954205     0.17100
C1057       C  0.41356520  0.63591789  0.98239605    -0.01200
C1058       C  0.41570751  0.61599103  0.98914381     0.07400
C1059       C  0.42319969  0.60177948  0.97581133    -0.07100
C1060       C  0.42901551  0.60726051  0.95637056     0.04900
C1061       C  0.42679146  0.62724202  0.94967017    -0.14400
C1062       C  0.41872560  0.64121812  0.96287042    -0.07700
C1063       C  0.40950081  0.60980383  0.00974539     0.05800
C1064       C  0.39019788  0.61432760  0.01594862    -0.08800
C1065       C  0.38350229  0.60898774  0.03499314     0.00800
C1066       C  0.39604560  0.59816010  0.04834003     0.00700
C1067       C  0.41550180  0.59387495  0.04223820    -0.12400
C1068       C  0.42232456  0.59970560  0.02328040     0.01100
C1069       C  0.36331913  0.61413239  0.03985764     0.40500
C1070       C  0.44258806  0.59525479  0.01817848     0.37100
C1071       C  0.40707514  0.65152938  0.99553888     0.36800
C1072       C  0.43714152  0.59207837  0.94368950     0.37600
N1073       N  0.34714747  0.61835516  0.04364516    -0.43200
N1074       N  0.45883691  0.59163835  0.01413644    -0.43700
N1075       N  0.44368997  0.57986044  0.93358745    -0.41000
N1076       N  0.40189924  0.66402868  0.00608507    -0.42500
H1077       H  0.41734341  0.65672843  0.95828773     0.13700
H1078       H  0.42458746  0.58634301  0.98062744     0.10200
H1079       H  0.38011210  0.62188582  0.00567281     0.11200
H1080       H  0.42534857  0.58557961  0.05216786     0.17100
C1081       C  0.37297459  0.50856460  0.01474777    -0.01200
C1082       C  0.35719162  0.51496095  0.00226638     0.07400
C1083       C  0.34150496  0.52575360  0.01047428    -0.07100
C1084       C  0.34189072  0.53131487  0.03049848     0.04900
C1085       C  0.35854224  0.52640390  0.04262846    -0.14400
C1086       C  0.37375631  0.51468955  0.03462995    -0.07700
C1087       C  0.35643307  0.51020465  0.98072591     0.05800
C1088       C  0.34061770  0.49881855  0.97355943    -0.08800
C1089       C  0.34009514  0.49240244  0.95378943     0.00800
C1090       C  0.35573542  0.49751444  0.94068679     0.00700
C1091       C  0.37062270  0.51043240  0.94752310    -0.12400
C1092       C  0.37112384  0.51673928  0.96734237     0.01100
C1093       C  0.32392909  0.47958718  0.94800237     0.40500
C1094       C  0.38713713  0.52948521  0.97367582     0.37100
C1095       C  0.38826135  0.49536878  0.00764081     0.36800
C1096       C  0.32542146  0.54293214  0.03774553     0.37600
N1097       N  0.31096248  0.46925550  0.94355916    -0.43200
N1098       N  0.40007398  0.53957924  0.97871088    -0.43700
N1099       N  0.31217996  0.55215614  0.04355915    -0.41000
N1100       N  0.40045210  0.48466776  0.00204966    -0.42500
H1101       H  0.38640448  0.51050364  0.04386277     0.13700
H1102       H  0.32909081  0.53023899  0.00104584     0.10200
H1103       H  0.32904882  0.49417513  0.98372947     0.11200
H1104       H  0.38257705  0.51475570  0.93768967     0.17100
C1105       C  0.14988123  0.47720072  0.00788328    -0.01200
C1106       C  0.13612500  0.49108811  0.99988458     0.07400
C1107       C  0.12219748  0.48474773  0.98574999    -0.07100
C1108       C  0.12284860  0.46539332  0.97828039     0.04900
C1109       C  0.13823309  0.45220393  0.98446087    -0.14400
C1110       C  0.15111624  0.45804621  0.99985663    -0.07700
C1111       C  0.13741054  0.51267016  0.00434685     0.05800
C1112       C  0.15517366  0.52270324  0.00025429    -0.08800
C1113       C  0.15725625  0.54302568  0.00425408     0.00800
C1114       C  0.14114551  0.55378646  0.01218549     0.00700
C1115       C  0.12306165  0.54389505  0.01526146    -0.12400
C1116       C  0.12113744  0.52352051  0.01161954     0.01100
C1117       C  0.17613878  0.55226227  0.00030287     0.40500
C1118       C  0.10266077  0.51393328  0.01651709     0.37100
C1119       C  0.16297976  0.48241487  0.02413031     0.36800
C1120       C  0.10853633  0.46026510  0.96305410     0.37600
N1121       N  0.19131706  0.55957357  0.99715768    -0.43200
N1122       N  0.08781991  0.50633995  0.02048820    -0.43700
N1123       N  0.09695562  0.45623405  0.95094277    -0.41000
N1124       N  0.17329002  0.48660396  0.03729598    -0.42500
H1125       H  0.16268488  0.44793504  0.00504156     0.13700
H1126       H  0.11144328  0.49529669  0.97969051     0.10200
H1127       H  0.16756001  0.51452981  0.99409001     0.11200
H1128       H  0.11063981  0.55180042  0.02168081     0.17100
C1129       C  0.23074698  0.60317596  0.09578342    -0.01200
C1130       C  0.24670459  0.60291207  0.08235637     0.07400
C1131       C  0.24301592  0.60647623  0.06200819    -0.07100
C1132       C  0.22372640  0.60961115  0.05480401     0.04900
C1133       C  0.20757160  0.60904073  0.06813275    -0.14400
C1134       C  0.21143015  0.60633659  0.08863160    -0.07700
C1135       C  0.26715796  0.59756944  0.08884279     0.05800
C1136       C  0.27075129  0.57842964  0.09673262    -0.08800
C1137       C  0.29007961  0.57178878  0.10072738     0.00800
C1138       C  0.30633824  0.58448612  0.09680436     0.00700
C1139       C  0.30259361  0.60400931  0.08985080    -0.12400
C1140       C  0.28324564  0.61055117  0.08573181     0.01100
C1141       C  0.29268099  0.55179479  0.10857741     0.40500
C1142       C  0.28027424  0.63050208  0.07792611     0.37100
C1143       C  0.23378423  0.60000435  0.11692152     0.36800
C1144       C  0.22109904  0.61331793  0.03368365     0.37600
N1145       N  0.29472483  0.53576023  0.11484488    -0.43200
N1146       N  0.27785775  0.64645538  0.07158711    -0.43700
N1147       N  0.21911315  0.61632091  0.01675115    -0.41000
N1148       N  0.23615270  0.59742301  0.13386886    -0.42500
H1149       H  0.19925493  0.60591069  0.09907833     0.13700
H1150       H  0.25524752  0.60627650  0.05161460     0.10200
H1151       H  0.25842371  0.56837175  0.09911093     0.11200
H1152       H  0.31485605  0.61394113  0.08674737     0.17100
C1153       C  0.10861661  0.49009225  0.12195678    -0.01200
C1154       C  0.10147111  0.49863378  0.10394101     0.07400
C1155       C  0.08893887  0.48719183  0.09176886    -0.07100
C1156       C  0.08309153  0.46783013  0.09753472     0.04900
C1157       C  0.08977235  0.45950381  0.11594593    -0.14400
C1158       C  0.10282265  0.47083780  0.12771674    -0.07700
C1159       C  0.10780259  0.51902465  0.09722941     0.05800
C1160       C  0.12801477  0.52254718  0.09425269    -0.08800
C1161       C  0.13492693  0.54129090  0.08810997     0.00800
C1162       C  0.12143490  0.55724080  0.08438676     0.00700
C1163       C  0.10110812  0.55368338  0.08729729    -0.12400
C1164       C  0.09427189  0.53490050  0.09389978     0.01100
C1165       C  0.15596214  0.54321242  0.08482743     0.40500
C1166       C  0.07339949  0.53242858  0.09769992     0.37100
C1167       C  0.12138931  0.50107839  0.13523383     0.36800
C1168       C  0.07015327  0.45702353  0.08428247     0.37600
N1169       N  0.17283446  0.54461500  0.08224433    -0.43200
N1170       N  0.05668574  0.53048652  0.10087934    -0.43700
N1171       N  0.05982771  0.44834154  0.07362231    -0.41000
N1172       N  0.13166096  0.50985025  0.14586450    -0.42500
H1173       H  0.10810142  0.46493345  0.14192313     0.13700
H1174       H  0.08373465  0.49341160  0.07766376     0.10200
H1175       H  0.13851210  0.51042683  0.09656421     0.11200
H1176       H  0.09052327  0.56559535  0.08442040     0.17100
C1177       C  0.08578618  0.39539510  0.23958258    -0.01200
C1178       C  0.10611521  0.39915513  0.24267773     0.07400
C1179       C  0.11858607  0.40085151  0.22609054    -0.07100
C1180       C  0.11083320  0.40059199  0.20661291     0.04900
C1181       C  0.09018198  0.39825446  0.20355908    -0.14400
C1182       C  0.07810506  0.39475592  0.22020448    -0.07700
C1183       C  0.11373223  0.40441227  0.26280664     0.05800
C1184       C  0.11224434  0.39065332  0.27866841    -0.08800
C1185       C  0.11523779  0.39661703  0.29847836     0.00800
C1186       C  0.11991058  0.41674202  0.30257029     0.00700
C1187       C  0.12314943  0.42990035  0.28646520    -0.12400
C1188       C  0.11997947  0.42401470  0.26680806     0.01100
C1189       C  0.11219185  0.38205524  0.31415525     0.40500
C1190       C  0.12163108  0.43892701  0.25119423     0.37100
C1191       C  0.07211545  0.39391911  0.25599517     0.36800
C1192       C  0.12426852  0.40419236  0.19033163     0.37600
N1193       N  0.10974544  0.37027384  0.32662877    -0.43200
N1194       N  0.12295747  0.45090602  0.23872481    -0.43700
N1195       N  0.13513640  0.40715564  0.17737800    -0.41000
N1196       N  0.06110008  0.39279943  0.26909190    -0.42500
H1197       H  0.06229736  0.39261687  0.21818321     0.13700
H1198       H  0.13425158  0.40363576  0.22841830     0.10200
H1199       H  0.10765446  0.37549611  0.27562349     0.11200
H1200       H  0.12708100  0.44530015  0.28923202     0.17100
C1201       C  0.99266685  0.50081527  0.35153167    -0.01200
C1202       C  0.00576473  0.50567496  0.33594118     0.07400
C1203       C  0.99820353  0.51480513  0.31856655    -0.07100
C1204       C  0.97824887  0.52060771  0.31719908     0.04900
C1205       C  0.96550069  0.51755676  0.33367747    -0.14400
C1206       C  0.97284611  0.50695395  0.35040036    -0.07700
C1207       C  0.02722951  0.50074150  0.33733678     0.05800
C1208       C  0.03522961  0.48729695  0.32371069    -0.08800
C1209       C  0.05448070  0.47982866  0.32625411     0.00800
C1210       C  0.06613764  0.48593381  0.34275854     0.00700
C1211       C  0.05862588  0.50056281  0.35549445    -0.12400
C1212       C  0.03942832  0.50817400  0.35276637     0.01100
C1213       C  0.06102219  0.46447978  0.31281046     0.40500
C1214       C  0.03239333  0.52322248  0.36627505     0.37100
C1215       C  0.99923756  0.48947519  0.36882264     0.36800
C1216       C  0.97158881  0.53011264  0.29889503     0.37600
N1217       N  0.06625550  0.45210267  0.30214220    -0.43200
N1218       N  0.02674472  0.53523346  0.37713958    -0.43700
N1219       N  0.96628573  0.53763351  0.28416376    -0.41000
N1220       N  0.00460637  0.48038146  0.38262200    -0.42500
H1221       H  0.96326750  0.50399670  0.36298777     0.13700
H1222       H  0.00805884  0.51785500  0.30621247     0.10200
H1223       H  0.02598626  0.48172489  0.31170469     0.11200
H1224       H  0.06749112  0.50551322  0.36805039     0.17100
C1225       C  0.89624841  0.53157133  0.10727777    -0.01200
C1226       C  0.90556804  0.51940535  0.09296343     0.07400
C1227       C  0.92170755  0.52745013  0.08248439    -0.07100
C1228       C  0.92889524  0.54676365  0.08640595     0.04900
C1229       C  0.91945014  0.55903965  0.10066094    -0.14400
C1230       C  0.90296322  0.55109891  0.11071557    -0.07700
C1231       C  0.89823509  0.49865455  0.08838055     0.05800
C1232       C  0.87819966  0.49605087  0.08331702    -0.08800
C1233       C  0.87042482  0.47718042  0.07900011     0.00800
C1234       C  0.88281109  0.45999331  0.07924302     0.00700
C1235       C  0.90299499  0.46257357  0.08398751    -0.12400
C1236       C  0.91068297  0.48155134  0.08873697     0.01100
C1237       C  0.84973263  0.47624401  0.07342111     0.40500
C1238       C  0.93130028  0.48297964  0.09440221     0.37100
C1239       C  0.88044057  0.52397884  0.11955940     0.36800
C1240       C  0.94640091  0.55317358  0.07595322     0.37600
N1241       N  0.83315252  0.47550098  0.06896398    -0.43200
N1242       N  0.94782858  0.48414637  0.09895601    -0.43700
N1243       N  0.96056036  0.55813695  0.06767285    -0.41000
N1244       N  0.86783840  0.51785213  0.12946287    -0.42500
H1245       H  0.89574245  0.55985049  0.12207565     0.13700
H1246       H  0.92891437  0.51850049  0.07126890     0.10200
H1247       H  0.86851798  0.50898677  0.08245739     0.11200
H1248       H  0.91279719  0.44972416  0.08409483     0.17100
C1249       C  0.98460221  0.52905794  0.16752673    -0.01200
C1250       C  0.99823906  0.52020646  0.15453697     0.07400
C1251       C  0.00620769  0.53155760  0.13888104    -0.07100
C1252       C  0.00015476  0.55130313  0.13546343     0.04900
C1253       C  0.98574239  0.56001370  0.14792405    -0.14400
C1254       C  0.97862227  0.54882708  0.16426197    -0.07700
C1255       C  0.00395032  0.49891916  0.15640675     0.05800
C1256       C  0.99771515  0.48570889  0.14158513    -0.08800
C1257       C  0.00462876  0.46599929  0.14137872     0.00800
C1258       C  0.01837114  0.45934502  0.15607648     0.00700
C1259       C  0.02341269  0.47227287  0.17171769    -0.12400
C1260       C  0.01636840  0.49192733  0.17195329     0.01100
C1261       C  0.99750725  0.45310918  0.12579680     0.40500
C1262       C  0.02295684  0.50496917  0.18764880     0.37100
C1263       C  0.97571672  0.51781201  0.18359487     0.36800
C1264       C  0.00859269  0.56189089  0.11871704     0.37600
N1265       N  0.99167021  0.44279756  0.11334792    -0.43200
N1266       N  0.02812841  0.51544571  0.20024936    -0.43700
N1267       N  0.01536308  0.57032813  0.10526816    -0.41000
N1268       N  0.96859365  0.50878689  0.19646078    -0.42500
H1269       H  0.96752068  0.55513217  0.17397533     0.13700
H1270       H  0.01690133  0.52477253  0.12901552     0.10200
H1271       H  0.98776230  0.49098690  0.12986609     0.11200
H1272       H  0.03384476  0.46745451  0.18319125     0.17100
C1273       C  0.93578139  0.62431116  0.22346458    -0.01200
C1274       C  0.91632541  0.61921801  0.22882517     0.07400
C1275       C  0.90141284  0.61932739  0.21413205    -0.07100
C1276       C  0.90609293  0.62222599  0.19392981     0.04900
C1277       C  0.92613880  0.62451214  0.18826135    -0.14400
C1278       C  0.94052865  0.62693430  0.20335640    -0.07700
C1279       C  0.91261449  0.60906475  0.24818945     0.05800
C1280       C  0.90739829  0.61993019  0.26511498    -0.08800
C1281       C  0.90574979  0.61040771  0.28385237     0.00800
C1282       C  0.90951594  0.58961004  0.28575897     0.00700
C1283       C  0.91421428  0.57888866  0.26850080    -0.12400
C1284       C  0.91579408  0.58836500  0.24996010     0.01100
C1285       C  0.90044449  0.62245338  0.30071395     0.40500
C1286       C  0.92134151  0.57660925  0.23293218     0.37100
C1287       C  0.95147668  0.62506699  0.23820329     0.36800
C1288       C  0.89017087  0.62174876  0.17944783     0.37600
N1289       N  0.89613245  0.63223067  0.31413325    -0.43200
N1290       N  0.92581015  0.56730361  0.21923666    -0.43700
N1291       N  0.87731740  0.62153493  0.16792106    -0.41000
N1292       N  0.96405697  0.62567937  0.25000734    -0.42500
H1293       H  0.95588827  0.62941943  0.19945223     0.13700
H1294       H  0.88634334  0.61570533  0.21828991     0.10200
H1295       H  0.90500187  0.63588922  0.26374780     0.11200
H1296       H  0.91716004  0.56299686  0.26946700     0.17100
C1297       C  0.02825974  0.61980455  0.39298856    -0.01200
C1298       C  0.02104863  0.60036782  0.39655946     0.07400
C1299       C  0.03357068  0.58647335  0.40634612    -0.07100
C1300       C  0.05272258  0.59182493  0.41289884     0.04900
C1301       C  0.05989130  0.61135063  0.40926145    -0.14400
C1302       C  0.04743576  0.62496049  0.39902908    -0.07700
C1303       C  0.00081217  0.59436001  0.38946356     0.05800
C1304       C  0.99599834  0.59697350  0.36920438    -0.08800
C1305       C  0.97712025  0.59245180  0.36176951     0.00800
C1306       C  0.96248877  0.58443274  0.37457312     0.00700
C1307       C  0.96735767  0.58146954  0.39484328    -0.12400
C1308       C  0.98617966  0.58666390  0.40239766     0.01100
C1309       C  0.97362053  0.59534427  0.34064008     0.40500
C1310       C  0.98992380  0.58455619  0.42354140     0.37100
C1311       C  0.01594127  0.63514237  0.38395813     0.36800
C1312       C  0.06458525  0.57697028  0.42322691     0.37600
N1313       N  0.97082374  0.59770647  0.32372221    -0.43200
N1314       N  0.99294497  0.58297910  0.44050272    -0.43700
N1315       N  0.07399999  0.56498232  0.43152145    -0.41000
N1316       N  0.00608486  0.64744937  0.37674542    -0.42500
H1317       H  0.05234332  0.64014031  0.39641355     0.13700
H1318       H  0.02835248  0.57139635  0.40891211     0.10200
H1319       H  0.00715334  0.60258431  0.35905048     0.11200
H1320       H  0.95641125  0.57518588  0.40482413     0.17100
C1321       C  0.08296412  0.75878424  0.38195378    -0.01200
C1322       C  0.10349931  0.75645931  0.38514061     0.07400
C1323       C  0.11570660  0.77332982  0.38479720    -0.07100
C1324       C  0.10749886  0.79254577  0.38328396     0.04900
C1325       C  0.08665189  0.79496567  0.38244885    -0.14400
C1326       C  0.07475472  0.77789615  0.38059211    -0.07700
C1327       C  0.11153893  0.73713367  0.39251699     0.05800
C1328       C  0.11155329  0.72054033  0.37996972    -0.08800
C1329       C  0.11431318  0.70123283  0.38780503     0.00800
C1330       C  0.11700890  0.69843074  0.40862792     0.00700
C1331       C  0.11878121  0.71530771  0.42076168    -0.12400
C1332       C  0.11597994  0.73448994  0.41294782     0.01100
C1333       C  0.11296491  0.68468974  0.37427610     0.40500
C1334       C  0.11597613  0.75107042  0.42654192     0.37100
C1335       C  0.06979518  0.74184054  0.38185770     0.36800
C1336       C  0.12079141  0.80933538  0.38380879     0.37600
N1337       N  0.11189520  0.67148089  0.36335750    -0.43200
N1338       N  0.11591424  0.76435549  0.43741534    -0.43700
N1339       N  0.13152128  0.82274912  0.38412103    -0.41000
N1340       N  0.05929967  0.72823494  0.38178568    -0.42500
H1341       H  0.05878760  0.77940532  0.37933103     0.13700
H1342       H  0.13155537  0.77151054  0.38697714     0.10200
H1343       H  0.10819913  0.72259654  0.36422879     0.11200
H1344       H  0.12122344  0.71351547  0.43669322     0.17100
C1345       C  0.99654880  0.67244882  0.51795327    -0.01200
C1346       C  0.00287988  0.65997655  0.50251062     0.07400
C1347       C  0.98897023  0.64840776  0.49220880    -0.07100
C1348       C  0.96892811  0.64871812  0.49745842     0.04900
C1349       C  0.96257712  0.66082953  0.51330331    -0.14400
C1350       C  0.97652194  0.67292205  0.52310246    -0.07700
C1351       C  0.02394562  0.65876817  0.49673472     0.05800
C1352       C  0.03466189  0.64130230  0.50110704    -0.08800
C1353       C  0.05392805  0.63867805  0.49396475     0.00800
C1354       C  0.06258295  0.65366987  0.48185364     0.00700
C1355       C  0.05225636  0.67175811  0.47884634    -0.12400
C1356       C  0.03307375  0.67434956  0.48607344     0.01100
C1357       C  0.06411408  0.62028149  0.49891335     0.40500
C1358       C  0.02258194  0.69262407  0.48131024     0.37100
C1359       C  0.01049596  0.68416243  0.52927083     0.36800
C1360       C  0.95524665  0.63660144  0.48627334     0.37600
N1361       N  0.07226790  0.60555185  0.50296615    -0.43200
N1362       N  0.01414307  0.70725516  0.47752516    -0.43700
N1363       N  0.94428835  0.62692930  0.47724486    -0.41000
N1364       N  0.02174335  0.69349110  0.53830673    -0.42500
H1365       H  0.97198153  0.68202627  0.53554571     0.13700
H1366       H  0.99384525  0.63900740  0.48011459     0.10200
H1367       H  0.02772269  0.62948221  0.50968674     0.11200
H1368       H  0.05865249  0.68354100  0.46978866     0.17100
C1369       C  0.98399402  0.82575466  0.51653782    -0.01200
C1370       C  0.99832828  0.83878582  0.50868165     0.07400
C1371       C  0.00711754  0.85292049  0.52116091    -0.07100
C1372       C  0.00126909  0.85484307  0.54104117     0.04900
C1373       C  0.98624020  0.84235200  0.54882940    -0.14400
C1374       C  0.97823911  0.82748243  0.53647058    -0.07700
C1375       C  0.00375807  0.83874441  0.48727703     0.05800
C1376       C  0.99912034  0.85555998  0.47550004    -0.08800
C1377       C  0.00550886  0.85710655  0.45572234     0.00800
C1378       C  0.01679405  0.84149202  0.44733791     0.00700
C1379       C  0.02052195  0.82422418  0.45895884    -0.12400
C1380       C  0.01430567  0.82283595  0.47879288     0.01100
C1381       C  0.00071836  0.87515447  0.44473795     0.40500
C1382       C  0.01998736  0.80550277  0.49050215     0.37100
C1383       C  0.97410838  0.81135571  0.50410550     0.36800
C1384       C  0.01048902  0.87030339  0.55266665     0.37600
N1385       N  0.99690357  0.88966392  0.43599493    -0.43200
N1386       N  0.02452660  0.79163083  0.49991718    -0.43700
N1387       N  0.01790698  0.88276711  0.56186952    -0.41000
N1388       N  0.96621259  0.79984185  0.49409571    -0.42500
H1389       H  0.96662444  0.81782347  0.54201451     0.13700
H1390       H  0.01827552  0.86286439  0.51514675     0.10200
H1391       H  0.99087029  0.86776739  0.48199047     0.11200
H1392       H  0.02930487  0.81215594  0.45294886     0.17100
C1393       C  0.89010011  0.78436121  0.59704225    -0.01200
C1394       C  0.90060796  0.76680532  0.60224520     0.07400
C1395       C  0.91831579  0.76838900  0.61321618    -0.07100
C1396       C  0.92662101  0.78702996  0.61716353     0.04900
C1397       C  0.91749245  0.80453706  0.60945592    -0.14400
C1398       C  0.89863572  0.80304253  0.60053770    -0.07700
C1399       C  0.89560861  0.74718692  0.59338416     0.05800
C1400       C  0.89512622  0.74584997  0.57251599    -0.08800
C1401       C  0.89483195  0.72736716  0.56309115     0.00800
C1402       C  0.89548725  0.70957733  0.57466634     0.00700
C1403       C  0.89432125  0.71096542  0.59555920    -0.12400
C1404       C  0.89432306  0.72954835  0.60493972     0.01100
C1405       C  0.89446768  0.72731917  0.54154150     0.40500
C1406       C  0.89338913  0.73015187  0.62642440     0.37100
C1407       C  0.87088716  0.78348952  0.58747479     0.36800
C1408       C  0.94469340  0.78765888  0.62881416     0.37600
N1409       N  0.89412848  0.72733241  0.52427821    -0.43200
N1410       N  0.89258157  0.73061846  0.64364682    -0.43700
N1411       N  0.95906093  0.78809591  0.63833610    -0.41000
N1412       N  0.85544143  0.78273204  0.57990854    -0.42500
H1413       H  0.89109023  0.81636437  0.59512037     0.13700
H1414       H  0.92635897  0.75500251  0.61764465     0.10200
H1415       H  0.89605719  0.75932741  0.56347823     0.11200
H1416       H  0.89427549  0.69752309  0.60469464     0.17100
C1417       C  0.94845457  0.49665997  0.89799238    -0.01200
C1418       C  0.92856811  0.50320259  0.89900665     0.07400
C1419       C  0.91348859  0.48951635  0.89450034    -0.07100
C1420       C  0.91788119  0.46990564  0.88853899     0.04900
C1421       C  0.93782330  0.46355394  0.88667137    -0.14400
C1422       C  0.95287295  0.47712354  0.89191954    -0.07700
C1423       C  0.92314250  0.52432199  0.90409238     0.05800
C1424       C  0.91286440  0.53619409  0.88996713    -0.08800
C1425       C  0.90651572  0.55568524  0.89445575     0.00800
C1426       C  0.91066138  0.56392902  0.91340071     0.00700
C1427       C  0.92186903  0.55234732  0.92706136    -0.12400
C1428       C  0.92758721  0.53265866  0.92285135     0.01100
C1429       C  0.89564841  0.56676517  0.87935275     0.40500
C1430       C  0.93661841  0.52084073  0.93862170     0.37100
C1431       C  0.96465671  0.50998634  0.90228199     0.36800
C1432       C  0.90156256  0.45669445  0.88444598     0.37600
N1433       N  0.88694323  0.57561731  0.86720811    -0.43200
N1434       N  0.94370697  0.51136484  0.95134404    -0.43700
N1435       N  0.88845126  0.44609530  0.88125748    -0.41000
N1436       N  0.97760880  0.52067543  0.90582001    -0.42500
H1437       H  0.96828279  0.47276952  0.89051100     0.13700
H1438       H  0.89814803  0.49424356  0.89551650     0.10200
H1439       H  0.90946402  0.53005407  0.87544816     0.11200
H1440       H  0.92515923  0.55823879  0.94163384     0.17100
C1441       C  0.90565564  0.43337831  0.72964361    -0.01200
C1442       C  0.90689636  0.41277318  0.73393286     0.07400
C1443       C  0.90552694  0.39920227  0.71816621    -0.07100
C1444       C  0.90413290  0.40590829  0.69825679     0.04900
C1445       C  0.90389744  0.42663494  0.69390032    -0.14400
C1446       C  0.90400259  0.44004932  0.70990045    -0.07700
C1447       C  0.91213182  0.40566597  0.75444036     0.05800
C1448       C  0.89987761  0.41072687  0.77046217    -0.08800
C1449       C  0.90681742  0.40935925  0.79022088     0.00800
C1450       C  0.92631271  0.40240850  0.79418481     0.00700
C1451       C  0.93761962  0.39527252  0.77820876    -0.12400
C1452       C  0.93081746  0.39700145  0.75850714     0.01100
C1453       C  0.89416918  0.41673371  0.80578119     0.40500
C1454       C  0.94409929  0.39153716  0.74267062     0.37100
C1455       C  0.90750492  0.44810654  0.74512707     0.36800
C1456       C  0.90360799  0.39116200  0.68274976     0.37600
N1457       N  0.88404337  0.42274626  0.81821951    -0.43200
N1458       N  0.95472675  0.38721021  0.72995579    -0.43700
N1459       N  0.90321020  0.37926409  0.67037876    -0.41000
N1460       N  0.90901480  0.45984469  0.75756906    -0.42500
H1461       H  0.90370547  0.45599469  0.70702232     0.13700
H1462       H  0.90637098  0.38333434  0.72139155     0.10200
H1463       H  0.88539529  0.41719245  0.76740850     0.11200
H1464       H  0.95244440  0.38951264  0.78093424     0.17100
C1465       C  0.09287870  0.53210081  0.89790517    -0.01200
C1466       C  0.10926927  0.52231014  0.88940769     0.07400
C1467       C  0.11984822  0.53228160  0.87440525    -0.07100
C1468       C  0.11413162  0.55134016  0.86743380     0.04900
C1469       C  0.09722852  0.56102737  0.87540609    -0.14400
C1470       C  0.08698098  0.55114293  0.89087135    -0.07700
C1471       C  0.11632281  0.50211691  0.89644859     0.05800
C1472       C  0.10543250  0.48483448  0.89194954    -0.08800
C1473       C  0.11234175  0.46565023  0.89768580     0.00800
C1474       C  0.13058528  0.46343666  0.90810757     0.00700
C1475       C  0.14129934  0.48088842  0.91256364    -0.12400
C1476       C  0.13435733  0.49991643  0.90697824     0.01100
C1477       C  0.10057402  0.44856926  0.89239150     0.40500
C1478       C  0.14575755  0.51712210  0.91275978     0.37100
C1479       C  0.08214304  0.52305610  0.91415845     0.36800
C1480       C  0.12592828  0.56031534  0.85190244     0.37600
N1481       N  0.09114943  0.43486455  0.88809962    -0.43200
N1482       N  0.15479525  0.53095981  0.91743439    -0.43700
N1483       N  0.13549506  0.56739719  0.83947214    -0.41000
N1484       N  0.07361414  0.51586273  0.92728021    -0.42500
H1485       H  0.07405268  0.55813452  0.89731703     0.13700
H1486       H  0.13267885  0.52503761  0.86801005     0.10200
H1487       H  0.09157602  0.48632740  0.88375912     0.11200
H1488       H  0.15509943  0.47979501  0.92090368     0.17100
C1489       C  0.00713337  0.53446247  0.83618568    -0.01200
C1490       C  0.01551504  0.52076258  0.82288510     0.07400
C1491       C  0.03019627  0.52710770  0.80972019    -0.07100
C1492       C  0.03762844  0.54654850  0.81058155     0.04900
C1493       C  0.03059251  0.55987181  0.82528930    -0.14400
C1494       C  0.01485267  0.55374762  0.83749938    -0.07700
C1495       C  0.00984841  0.49949105  0.82336737     0.05800
C1496       C  0.99610622  0.49248095  0.80941271    -0.08800
C1497       C  0.98850280  0.47313379  0.81105944     0.00800
C1498       C  0.99493343  0.46038412  0.82689130     0.00700
C1499       C  0.00993236  0.46705665  0.83983695    -0.12400
C1500       C  0.01721189  0.48649690  0.83834626     0.01100
C1501       C  0.97349062  0.46726766  0.79682648     0.40500
C1502       C  0.03149627  0.49312521  0.85297821     0.37100
C1503       C  0.99061907  0.52894595  0.84859281     0.36800
C1504       C  0.05296983  0.55192109  0.79665212     0.37600
N1505       N  0.96137579  0.46268332  0.78546929    -0.43200
N1506       N  0.04286221  0.49842704  0.86477942    -0.43700
N1507       N  0.06517762  0.55614041  0.78535889    -0.41000
N1508       N  0.97717080  0.52450211  0.85823287    -0.42500
H1509       H  0.00890458  0.56383344  0.84849753     0.13700
H1510       H  0.03628151  0.51663685  0.79915162     0.10200
H1511       H  0.99064716  0.50246755  0.79775582     0.11200
H1512       H  0.01505607  0.45758171  0.85205090     0.17100
C1513       C  0.03424240  0.60854159  0.58154510    -0.01200
C1514       C  0.02083269  0.61629174  0.59557757     0.07400
C1515       C  0.02753813  0.61972671  0.61507156    -0.07100
C1516       C  0.04690670  0.61487784  0.62098423     0.04900
C1517       C  0.06004097  0.60586005  0.60729458    -0.14400
C1518       C  0.05355505  0.60321618  0.58751914    -0.07700
C1519       C  0.99957699  0.62023488  0.59059638     0.05800
C1520       C  0.98764099  0.60460194  0.58362306    -0.08800
C1521       C  0.96759069  0.60776945  0.57871740     0.00800
C1522       C  0.95897324  0.62681753  0.58123678     0.00700
C1523       C  0.97079486  0.64217621  0.58903130    -0.12400
C1524       C  0.99088942  0.63914541  0.59343492     0.01100
C1525       C  0.95630191  0.59123505  0.57112179     0.40500
C1526       C  0.00251714  0.65600242  0.59978840     0.37100
C1527       C  0.02853691  0.60594318  0.56094333     0.36800
C1528       C  0.05224659  0.61820596  0.64159771     0.37600
N1529       N  0.94732535  0.57792162  0.56502867    -0.43200
N1530       N  0.01184089  0.66951232  0.60484264    -0.43700
N1531       N  0.05643542  0.62091642  0.65812099    -0.41000
N1532       N  0.02397837  0.60390788  0.54441776    -0.42500
H1533       H  0.06341796  0.59647796  0.57680493     0.13700
H1534       H  0.01734398  0.62565823  0.62595966     0.10200
H1535       H  0.99407441  0.58988736  0.58184444     0.11200
H1536       H  0.96463795  0.65703371  0.59062856     0.17100
C1537       C  0.02561466  0.51867916  0.62961331    -0.01200
C1538       C  0.01445505  0.52211525  0.64695242     0.07400
C1539       C  0.02370810  0.53094717  0.66339464    -0.07100
C1540       C  0.04346211  0.53721447  0.66248783     0.04900
C1541       C  0.05442455  0.53473280  0.64469317    -0.14400
C1542       C  0.04529493  0.52508964  0.62854911    -0.07700
C1543       C  0.99357007  0.51531747  0.64867742     0.05800
C1544       C  0.98900855  0.50115104  0.66342297    -0.08800
C1545       C  0.97044970  0.49195631  0.66385681     0.00800
C1546       C  0.95603201  0.49674185  0.64902097     0.00700
C1547       C  0.96003157  0.51233065  0.63545257    -0.12400
C1548       C  0.97852170  0.52175138  0.63530632     0.01100
C1549       C  0.96717764  0.47705524  0.67919455     0.40500
C1550       C  0.98182807  0.53764688  0.62101243     0.37100
C1551       C  0.01717547  0.50848157  0.61275914     0.36800
C1552       C  0.05172456  0.54658529  0.67995343     0.37600
N1553       N  0.96462965  0.46513416  0.69151491    -0.43200
N1554       N  0.98445308  0.55031989  0.60948760    -0.43700
N1555       N  0.05829654  0.55407488  0.69398716    -0.41000
N1556       N  0.01004818  0.50051025  0.59930690    -0.42500
H1557       H  0.05340395  0.52287101  0.61484857     0.13700
H1558       H  0.01534512  0.53318840  0.67694282     0.10200
H1559       H  0.00034336  0.49655642  0.67410353     0.11200
H1560       H  0.94903002  0.51661228  0.62431716     0.17100
C1561       C  0.12081201  0.59336716  0.72661432    -0.01200
C1562       C  0.11946053  0.61414904  0.72926632     0.07400
C1563       C  0.12061539  0.62689868  0.71260494    -0.07100
C1564       C  0.12140501  0.61915650  0.69327726     0.04900
C1565       C  0.12102015  0.59822643  0.69053994    -0.14400
C1566       C  0.12174916  0.58564005  0.70742333    -0.07700
C1567       C  0.11321299  0.62213014  0.74875333     0.05800
C1568       C  0.12577228  0.61996477  0.76541180    -0.08800
C1569       C  0.11829911  0.62157591  0.78479018     0.00800
C1570       C  0.09781739  0.62510562  0.78756089     0.00700
C1571       C  0.08588988  0.62951507  0.77078097    -0.12400
C1572       C  0.09340388  0.62812221  0.75150509     0.01100
C1573       C  0.13169715  0.61802725  0.80134295     0.40500
C1574       C  0.08002401  0.63111666  0.73478677     0.37100
C1575       C  0.11936393  0.57955062  0.74322926     0.36800
C1576       C  0.12133210  0.63308674  0.67670146     0.37600
N1577       N  0.14252803  0.61526825  0.81456528    -0.43200
N1578       N  0.06939013  0.63355100  0.72134303    -0.43700
N1579       N  0.12127538  0.64430261  0.66345483    -0.41000
N1580       N  0.11812356  0.56848875  0.75652611    -0.42500
H1581       H  0.12181749  0.56957693  0.70567957     0.13700
H1582       H  0.11963147  0.64289509  0.71466010     0.10200
H1583       H  0.14109242  0.61559523  0.76327447     0.11200
H1584       H  0.07027665  0.63283664  0.77263932     0.17100
C1585       C  0.98971614  0.41547663  0.42151939    -0.01200
C1586       C  0.00091828  0.40414303  0.40792656     0.07400
C1587       C  0.99214217  0.38713778  0.39966523    -0.07100
C1588       C  0.97270671  0.38149674  0.40427881     0.04900
C1589       C  0.96144883  0.39261183  0.41812095    -0.14400
C1590       C  0.97031491  0.40961196  0.42655035    -0.07700
C1591       C  0.02153313  0.40972653  0.40155145     0.05800
C1592       C  0.03680657  0.41223181  0.41578910    -0.08800
C1593       C  0.05637568  0.41667682  0.40995156     0.00800
C1594       C  0.06113322  0.41811178  0.38948856     0.00700
C1595       C  0.04588499  0.41542229  0.37537181    -0.12400
C1596       C  0.02635047  0.41163184  0.38113272     0.01100
C1597       C  0.07133968  0.41923053  0.42518733     0.40500
C1598       C  0.01136692  0.41053987  0.36567646     0.37100
C1599       C  0.99761836  0.43337500  0.43025690     0.36800
C1600       C  0.96502613  0.36398490  0.39459634     0.37600
N1601       N  0.08336491  0.42127590  0.43738953    -0.43200
N1602       N  0.99938792  0.40965780  0.35327376    -0.43700
N1603       N  0.95898610  0.34997017  0.38670723    -0.41000
N1604       N  0.00393596  0.44771604  0.43729978    -0.42500
H1605       H  0.96215434  0.41830210  0.43729806     0.13700
H1606       H  0.00060581  0.37810318  0.38943191     0.10200
H1607       H  0.03348898  0.41054886  0.43151004     0.11200
H1608       H  0.04906075  0.41706996  0.35960250     0.17100
C1609       C  0.92217180  0.24812411  0.38349042    -0.01200
C1610       C  0.90362458  0.25050023  0.39277017     0.07400
C1611       C  0.89238997  0.23344863  0.39722430    -0.07100
C1612       C  0.90039672  0.21426408  0.39496653     0.04900
C1613       C  0.91986841  0.21200193  0.38761202    -0.14400
C1614       C  0.92995940  0.22902603  0.38081365    -0.07700
C1615       C  0.89765544  0.27016756  0.40098435     0.05800
C1616       C  0.89615254  0.28694219  0.38831936    -0.08800
C1617       C  0.89531161  0.30627695  0.39610657     0.00800
C1618       C  0.89585055  0.30900588  0.41702442     0.00700
C1619       C  0.89529373  0.29205530  0.42953871    -0.12400
C1620       C  0.89628906  0.27284009  0.42178987     0.01100
C1621       C  0.89475829  0.32288046  0.38222937     0.40500
C1622       C  0.89743088  0.25624656  0.43569905     0.37100
C1623       C  0.93445240  0.26497860  0.37833124     0.36800
C1624       C  0.88897174  0.19750353  0.40204340     0.37600
N1625       N  0.89427007  0.33614449  0.37104186    -0.43200
N1626       N  0.89825527  0.24296090  0.44684488    -0.43700
N1627       N  0.87975409  0.18415160  0.40782318    -0.41000
N1628       N  0.94433005  0.27843684  0.37416258    -0.42500
H1629       H  0.94471885  0.22755467  0.37470071     0.13700
H1630       H  0.87795215  0.23518002  0.40399662     0.10200
H1631       H  0.89674630  0.28496341  0.37230019     0.11200
H1632       H  0.89522106  0.29374259  0.44560780     0.17100
C1633       C  0.01748639  0.15453956  0.51655443    -0.01200
C1634       C  0.01361745  0.17414210  0.50970286     0.07400
C1635       C  0.01640749  0.19012726  0.52268754    -0.07100
C1636       C  0.02434367  0.18698717  0.54183914     0.04900
C1637       C  0.02962268  0.16744754  0.54823026    -0.14400
C1638       C  0.02540421  0.15135631  0.53564742    -0.07700
C1639       C  0.00637491  0.17808866  0.48911085     0.05800
C1640       C  0.98718919  0.18561587  0.48628866    -0.08800
C1641       C  0.97865859  0.18667867  0.46720932     0.00800
C1642       C  0.98938946  0.17966776  0.45053437     0.00700
C1643       C  0.00926222  0.17388619  0.45329644    -0.12400
C1644       C  0.01787281  0.17332326  0.47234850     0.01100
C1645       C  0.95853154  0.19396123  0.46561514     0.40500
C1646       C  0.03841639  0.16749834  0.47441419     0.37100
C1647       C  0.01371096  0.13746203  0.50415123     0.36800
C1648       C  0.02714621  0.20414286  0.55437800     0.37600
N1649       N  0.94244148  0.19993644  0.46454447    -0.43200
N1650       N  0.05490808  0.16294582  0.47607357    -0.43700
N1651       N  0.02937100  0.21790204  0.56441445    -0.41000
N1652       N  0.01074537  0.12379212  0.49418708    -0.42500
H1653       H  0.02916246  0.13626383  0.54031080     0.13700
H1654       H  0.01287362  0.20515556  0.51763009     0.10200
H1655       H  0.97852709  0.18982046  0.49915269     0.11200
H1656       H  0.01788672  0.16902829  0.44065397     0.17100
C1657       C  0.02563587  0.41692097  0.55999252    -0.01200
C1658       C  0.01811790  0.41483131  0.57950573     0.07400
C1659       C  0.03061132  0.40686986  0.59447360    -0.07100
C1660       C  0.05001369  0.40055049  0.59024733     0.04900
C1661       C  0.05742176  0.40210828  0.57056922    -0.14400
C1662       C  0.04506993  0.41074833  0.55575758    -0.07700
C1663       C  0.99727484  0.42053050  0.58473188     0.05800
C1664       C  0.98411371  0.40574201  0.59136081    -0.08800
C1665       C  0.96488478  0.41058367  0.59778366     0.00800
C1666       C  0.95846364  0.43072707  0.59806959     0.00700
C1667       C  0.97149048  0.44542642  0.59065765    -0.12400
C1668       C  0.99062239  0.44049848  0.58402697     0.01100
C1669       C  0.95205678  0.39448442  0.60378069     0.40500
C1670       C  0.00349085  0.45618501  0.57704230     0.37100
C1671       C  0.01338329  0.42440020  0.54380028     0.36800
C1672       C  0.06179293  0.39226089  0.60640955     0.37600
N1673       N  0.94179291  0.38148297  0.60841823    -0.43200
N1674       N  0.01405846  0.46834274  0.57101512    -0.43700
N1675       N  0.07122359  0.38557620  0.61935516    -0.41000
N1676       N  0.00358940  0.43037385  0.53078887    -0.42500
H1677       H  0.05023411  0.41184030  0.54051271     0.13700
H1678       H  0.02506931  0.40538326  0.60955502     0.10200
H1679       H  0.98895412  0.39029611  0.59162964     0.11200
H1680       H  0.96704463  0.46098192  0.59073278     0.17100
C1681       C  0.98497552  0.35686770  0.50518965    -0.01200
C1682       C  0.99723227  0.34275844  0.49584039     0.07400
C1683       C  0.98891089  0.32919592  0.48254706    -0.07100
C1684       C  0.96895197  0.33071775  0.47697268     0.04900
C1685       C  0.95704011  0.34628529  0.48470097    -0.14400
C1686       C  0.96508749  0.35872019  0.49939133    -0.07700
C1687       C  0.01895867  0.34291617  0.49877916     0.05800
C1688       C  0.02815107  0.32709908  0.50907167    -0.08800
C1689       C  0.04811405  0.32830228  0.51473834     0.00800
C1690       C  0.05904559  0.34576008  0.51018286     0.00700
C1691       C  0.05031922  0.36044396  0.49780413    -0.12400
C1692       C  0.03042778  0.35915402  0.49210523     0.01100
C1693       C  0.05662641  0.31176430  0.52587022     0.40500
C1694       C  0.02187762  0.37505401  0.48007540     0.37100
C1695       C  0.99268950  0.36978415  0.52047548     0.36800
C1696       C  0.96176827  0.31715602  0.46198609     0.37600
N1697       N  0.06340108  0.29847413  0.53476742    -0.43200
N1698       N  0.01502859  0.38779031  0.47044861    -0.43700
N1699       N  0.95605035  0.30630440  0.44995008    -0.41000
N1700       N  0.99899517  0.37991779  0.53283562    -0.42500
H1701       H  0.95608647  0.37046135  0.50571485     0.13700
H1702       H  0.99830005  0.31807441  0.47569410     0.10200
H1703       H  0.01946757  0.31424522  0.51352148     0.11200
H1704       H  0.05857181  0.37369605  0.49371975     0.17100
C1705       C  0.10952880  0.29184523  0.61245822    -0.01200
C1706       C  0.11546576  0.27460287  0.60211908     0.07400
C1707       C  0.12441172  0.27679523  0.58342548    -0.07100
C1708       C  0.12611816  0.29548693  0.57431841     0.04900
C1709       C  0.11811283  0.31249220  0.58362388    -0.14400
C1710       C  0.11078947  0.31063043  0.60311954    -0.07700
C1711       C  0.10955228  0.25417644  0.60849027     0.05800
C1712       C  0.08931314  0.25037581  0.61104163    -0.08800
C1713       C  0.08211263  0.23087954  0.61168417     0.00800
C1714       C  0.09531216  0.21459528  0.60934762     0.00700
C1715       C  0.11577337  0.21838281  0.60871082    -0.12400
C1716       C  0.12295208  0.23795987  0.60831609     0.01100
C1717       C  0.06099921  0.22828217  0.61389961     0.40500
C1718       C  0.14404658  0.24106963  0.60681045     0.37100
C1719       C  0.10159387  0.29051343  0.63236053     0.36800
C1720       C  0.13574412  0.29662578  0.55516835     0.37600
N1721       N  0.04407901  0.22627833  0.61567633    -0.43200
N1722       N  0.16093535  0.24361717  0.60550906    -0.43700
N1723       N  0.14351207  0.29758090  0.53986509    -0.41000
N1724       N  0.09529189  0.28940324  0.64833393    -0.42500
H1725       H  0.10502724  0.32363573  0.61063298     0.13700
H1726       H  0.12907566  0.26370536  0.57531461     0.10200
H1727       H  0.07886305  0.26270280  0.61116526     0.11200
H1728       H  0.12616275  0.20610316  0.60741191     0.17100
C1729       C  0.11942059  0.14132997  0.51024802    -0.01200
C1730       C  0.11382147  0.12302669  0.50161398     0.07400
C1731       C  0.10437523  0.10881600  0.51379000    -0.07100
C1732       C  0.09965748  0.11283271  0.53377675     0.04900
C1733       C  0.10424243  0.13159742  0.54216410    -0.14400
C1734       C  0.11454714  0.14545194  0.53016422    -0.07700
C1735       C  0.11822814  0.11804212  0.48024499     0.05800
C1736       C  0.13793185  0.11809170  0.47375495    -0.08800
C1737       C  0.14297252  0.11188092  0.45450683     0.00800
C1738       C  0.12814363  0.10503211  0.44108043     0.00700
C1739       C  0.10827553  0.10593114  0.44723315    -0.12400
C1740       C  0.10325831  0.11233888  0.46653537     0.01100
C1741       C  0.16366244  0.11246082  0.44916750     0.40500
C1742       C  0.08261624  0.11286211  0.47198385     0.37100
C1743       C  0.12964909  0.15644716  0.49884390     0.36800
C1744       C  0.08992083  0.09737479  0.54511353     0.37600
N1745       N  0.18023425  0.11287722  0.44488299    -0.43200
N1746       N  0.06608279  0.11329646  0.47640427    -0.43700
N1747       N  0.08219266  0.08485855  0.55412592    -0.41000
N1748       N  0.13799290  0.16853414  0.48980701    -0.42500
H1749       H  0.11835066  0.15991212  0.53614178     0.13700
H1750       H  0.10059956  0.09443202  0.50759894     0.10200
H1751       H  0.14959162  0.12246795  0.48401878     0.11200
H1752       H  0.09666378  0.10087309  0.43725626     0.17100
C1753       C  0.28408445  0.09606926  0.39568801    -0.01200
C1754       C  0.26702970  0.10361139  0.40515876     0.07400
C1755       C  0.26937297  0.11585093  0.42188673    -0.07100
C1756       C  0.28819909  0.11983373  0.42974714     0.04900
C1757       C  0.30509482  0.11126941  0.42100857    -0.14400
C1758       C  0.30290100  0.10003435  0.40360089    -0.07700
C1759       C  0.24671235  0.09739162  0.39912960     0.05800
C1760       C  0.24231474  0.07695834  0.39890481    -0.08800
C1761       C  0.22313313  0.07021913  0.39489904     0.00800
C1762       C  0.20764174  0.08412577  0.39134931     0.00700
C1763       C  0.21217016  0.10460244  0.39110270    -0.12400
C1764       C  0.23144170  0.11130073  0.39496538     0.01100
C1765       C  0.21993817  0.04893938  0.39475427     0.40500
C1766       C  0.23509201  0.13251111  0.39475089     0.37100
C1767       C  0.28265584  0.08373930  0.37820380     0.36800
C1768       C  0.28983072  0.13291740  0.44663397     0.37600
N1769       N  0.21744830  0.03187428  0.39463425    -0.43200
N1770       N  0.23796462  0.14951564  0.39470389    -0.43700
N1771       N  0.29117850  0.14355817  0.46004544    -0.41000
N1772       N  0.28149403  0.07371043  0.36430706    -0.42500
H1773       H  0.31584861  0.09349595  0.39672362     0.13700
H1774       H  0.25641457  0.12173200  0.42929359     0.10200
H1775       H  0.25387722  0.06616003  0.40238314     0.11200
H1776       H  0.20052396  0.11551617  0.38843495     0.17100
C1777       C  0.38333845  0.99554049  0.53230053    -0.01200
C1778       C  0.36980482  0.00294616  0.51785731     0.07400
C1779       C  0.35698907  0.98952986  0.50828537    -0.07100
C1780       C  0.35685901  0.96924536  0.51352704     0.04900
C1781       C  0.37048882  0.96185342  0.52788490    -0.14400
C1782       C  0.38384957  0.97515101  0.53684596    -0.07700
C1783       C  0.36913940  0.02444546  0.51203287     0.05800
C1784       C  0.38659153  0.03375311  0.50566749    -0.08800
C1785       C  0.38628462  0.05316216  0.49782868     0.00800
C1786       C  0.36798517  0.06337295  0.49535813     0.00700
C1787       C  0.35076154  0.05459416  0.50310052    -0.12400
C1788       C  0.35124670  0.03543126  0.51160079     0.01100
C1789       C  0.40492356  0.06164427  0.49164725     0.40500
C1790       C  0.33314381  0.02727929  0.51955071     0.37100
C1791       C  0.39600639  0.00867284  0.54355198     0.36800
C1792       C  0.34242145  0.95649389  0.50416569     0.37600
N1793       N  0.41991576  0.06841652  0.48684537    -0.43200
N1794       N  0.31865439  0.02072754  0.52594091    -0.43700
N1795       N  0.33070213  0.94637264  0.49674299    -0.41000
N1796       N  0.40609780  0.01925550  0.55255604    -0.42500
H1797       H  0.39395138  0.96982170  0.54841475     0.13700
H1798       H  0.34679853  0.99499292  0.49687181     0.10200
H1799       H  0.40046773  0.02553706  0.50609908     0.11200
H1800       H  0.33668592  0.06238420  0.50182559     0.17100
C1801       C  0.09308878  0.91448414  0.51556760    -0.01200
C1802       C  0.10605519  0.90319061  0.50357187     0.07400
C1803       C  0.12523510  0.89920469  0.51089358    -0.07100
C1804       C  0.13164574  0.90625114  0.52947480     0.04900
C1805       C  0.11907133  0.91843704  0.54107870    -0.14400
C1806       C  0.09967490  0.92206346  0.53399732    -0.07700
C1807       C  0.09999893  0.89517603  0.48353443     0.05800
C1808       C  0.09254016  0.90816319  0.46860261    -0.08800
C1809       C  0.08637969  0.90104812  0.44984563     0.00800
C1810       C  0.08801865  0.88048511  0.44541633     0.00700
C1811       C  0.09617449  0.86769193  0.46017415    -0.12400
C1812       C  0.10190737  0.87472270  0.47899416     0.01100
C1813       C  0.07812892  0.91520786  0.43567132     0.40500
C1814       C  0.10884125  0.86038067  0.49372060     0.37100
C1815       C  0.07287914  0.91832957  0.50940198     0.36800
C1816       C  0.15123650  0.90048055  0.53624987     0.37600
N1817       N  0.07143910  0.92658387  0.42436412    -0.43200
N1818       N  0.11444890  0.84894288  0.50554441    -0.43700
N1819       N  0.16688623  0.89574996  0.54172425    -0.41000
N1820       N  0.05668133  0.92137792  0.50442126    -0.42500
H1821       H  0.08977043  0.93133991  0.54257845     0.13700
H1822       H  0.13538967  0.89055715  0.50195541     0.10200
H1823       H  0.09134940  0.92396614  0.47167286     0.11200
H1824       H  0.09739419  0.85184318  0.45735101     0.17100
C1825       C  0.11496685  0.99596556  0.50589119    -0.01200
C1826       C  0.12949305  0.00760499  0.49648641     0.07400
C1827       C  0.14530152  0.01525647  0.50773795    -0.07100
C1828       C  0.14747011  0.01034208  0.52798109     0.04900
C1829       C  0.13353744  0.99763899  0.53715498    -0.14400
C1830       C  0.11697217  0.99125030  0.52611720    -0.07700
C1831       C  0.12853725  0.01193072  0.47488164     0.05800
C1832       C  0.11369047  0.02471733  0.46759885    -0.08800
C1833       C  0.11380242  0.03135068  0.44778572     0.00800
C1834       C  0.12923669  0.02521303  0.43496386     0.00700
C1835       C  0.14301773  0.01093756  0.44192307    -0.12400
C1836       C  0.14276249  0.00427064  0.46174041     0.01100
C1837       C  0.09888079  0.04575940  0.44178092     0.40500
C1838       C  0.15754724  0.99003041  0.46845034     0.37100
C1839       C  0.09866987  0.98753609  0.49477862     0.36800
C1840       C  0.16411492  0.01836428  0.53888087     0.37600
N1841       N  0.08688422  0.05731272  0.43710951    -0.43200
N1842       N  0.16934392  0.97857802  0.47385236    -0.43700
N1843       N  0.17742106  0.02488712  0.54759755    -0.41000
N1844       N  0.08567543  0.98071602  0.48583076    -0.42500
H1845       H  0.10625618  0.98130221  0.53288816     0.13700
H1846       H  0.15619431  0.02469577  0.50054263     0.10200
H1847       H  0.10255381  0.03031443  0.47771644     0.11200
H1848       H  0.15474861  0.00587827  0.43221728     0.17100
C1849       C  0.22709974  0.90807915  0.59433166    -0.01200
C1850       C  0.24346079  0.92085062  0.59232198     0.07400
C1851       C  0.24043765  0.94150292  0.59126815    -0.07100
C1852       C  0.22133094  0.94959512  0.59137523     0.04900
C1853       C  0.20473497  0.93682250  0.59265730    -0.14400
C1854       C  0.20792073  0.91612107  0.59461786    -0.07700
C1855       C  0.26376539  0.91323241  0.58924355     0.05800
C1856       C  0.26874423  0.90645604  0.57024723    -0.08800
C1857       C  0.28852409  0.90303556  0.56518031     0.00800
C1858       C  0.30372514  0.90613296  0.57948414     0.00700
C1859       C  0.29846076  0.91150824  0.59896582    -0.12400
C1860       C  0.27868963  0.91533139  0.60383723     0.01100
C1861       C  0.29268152  0.89693685  0.54504830     0.40500
C1862       C  0.27412825  0.92225743  0.62359374     0.37100
C1863       C  0.22966117  0.88673532  0.59590273     0.36800
C1864       C  0.21935924  0.97102076  0.59003139     0.37600
N1865       N  0.29586370  0.89213380  0.52885541    -0.43200
N1866       N  0.27048900  0.92786788  0.63941341    -0.43700
N1867       N  0.21785188  0.98819665  0.58892024    -0.41000
N1868       N  0.23168322  0.86962435  0.59722486    -0.42500
H1869       H  0.19539589  0.90610698  0.59573448     0.13700
H1870       H  0.25309303  0.95131238  0.58972689     0.10200
H1871       H  0.25721164  0.90488498  0.55901118     0.11200
H1872       H  0.30989903  0.91389955  0.61012727     0.17100
C1873       C  0.40932521  0.99414834  0.38073080    -0.01200
C1874       C  0.40855763  0.00006707  0.40085406     0.07400
C1875       C  0.41233633  0.98567587  0.41589418    -0.07100
C1876       C  0.41734516  0.96589306  0.41109449     0.04900
C1877       C  0.41801977  0.96007345  0.39093442    -0.14400
C1878       C  0.41363533  0.97434066  0.37601761    -0.07700
C1879       C  0.40294958  0.02093659  0.40627674     0.05800
C1880       C  0.38475811  0.02857780  0.39938389    -0.08800
C1881       C  0.37842649  0.04780827  0.40426852     0.00800
C1882       C  0.39031339  0.06003483  0.41667434     0.00700
C1883       C  0.40889728  0.05259604  0.42304753    -0.12400
C1884       C  0.41522798  0.03325760  0.41801096     0.01100
C1885       C  0.35935590  0.05422240  0.39658456     0.40500
C1886       C  0.43432860  0.02633881  0.42510682     0.37100
C1887       C  0.40688562  0.00836001  0.36454093     0.36800
C1888       C  0.42142049  0.95182832  0.42705781     0.37600
N1889       N  0.34402231  0.05922842  0.39046412    -0.43200
N1890       N  0.44959761  0.02068427  0.43081030    -0.43700
N1891       N  0.42465002  0.94055271  0.43987807    -0.41000
N1892       N  0.40505146  0.01972572  0.35153752    -0.42500
H1893       H  0.41468271  0.97028551  0.36043670     0.13700
H1894       H  0.41143694  0.98992650  0.43141793     0.10200
H1895       H  0.37520769  0.01925657  0.39036066     0.11200
H1896       H  0.41820007  0.06157309  0.43264454     0.17100
C1897       C  0.49378829  0.90973501  0.12321691    -0.01200
C1898       C  0.50089054  0.91326956  0.10373757     0.07400
C1899       C  0.48747993  0.92050549  0.08915336    -0.07100
C1900       C  0.46758661  0.92474165  0.09382457     0.04900
C1901       C  0.46055760  0.92144198  0.11343122    -0.14400
C1902       C  0.47389362  0.91360274  0.12778669    -0.07700
C1903       C  0.52197146  0.90872811  0.09822896     0.05800
C1904       C  0.52937729  0.88936547  0.10147767    -0.08800
C1905       C  0.54872767  0.88407823  0.09609606     0.00800
C1906       C  0.56125951  0.89822182  0.08669195     0.00700
C1907       C  0.55396283  0.91775912  0.08376610    -0.12400
C1908       C  0.53466982  0.92313039  0.08963273     0.01100
C1909       C  0.55476210  0.86362135  0.09947876     0.40500
C1910       C  0.52835066  0.94358738  0.08696431     0.37100
C1911       C  0.50686254  0.90304956  0.13910825     0.36800
C1912       C  0.45476574  0.93234737  0.07815612     0.37600
N1913       N  0.55955288  0.84721976  0.10221667    -0.43200
N1914       N  0.52329459  0.95999979  0.08490958    -0.43700
N1915       N  0.44451981  0.93842790  0.06555046    -0.41000
N1916       N  0.51736148  0.89770259  0.15182643    -0.42500
H1917       H  0.46903142  0.91131524  0.14301406     0.13700
H1918       H  0.49258695  0.92288706  0.07402413     0.10200
H1919       H  0.51978387  0.87810958  0.10791832     0.11200
H1920       H  0.56325810  0.92883620  0.07661861     0.17100
C1921       C  0.40307956  0.93517756  0.23616562    -0.01200
C1922       C  0.40783856  0.91534995  0.24149318     0.07400
C1923       C  0.40884342  0.90087801  0.22656923    -0.07100
C1924       C  0.40626669  0.90612478  0.20637935     0.04900
C1925       C  0.40267215  0.92629014  0.20090950    -0.14400
C1926       C  0.40046252  0.94042608  0.21609803    -0.07700
C1927       C  0.41383023  0.91009904  0.26225071     0.05800
C1928       C  0.39988124  0.91123092  0.27758853    -0.08800
C1929       C  0.40568988  0.90918946  0.29764940     0.00800
C1930       C  0.42587713  0.90572833  0.30259515     0.00700
C1931       C  0.43959413  0.90373234  0.28704634    -0.12400
C1932       C  0.43379828  0.90602478  0.26708797     0.01100
C1933       C  0.39078579  0.91199848  0.31269350     0.40500
C1934       C  0.44886157  0.90550454  0.25191557     0.37100
C1935       C  0.40215492  0.95071285  0.25089382     0.36800
C1936       C  0.40850759  0.89068504  0.19172914     0.37600
N1937       N  0.37879800  0.91435518  0.32469474    -0.43200
N1938       N  0.46093200  0.90518833  0.23976276    -0.43700
N1939       N  0.41031247  0.87820956  0.18008187    -0.41000
N1940       N  0.40144897  0.96318353  0.26266553    -0.42500
H1941       H  0.39751710  0.95592187  0.21227801     0.13700
H1942       H  0.41244408  0.88558771  0.23067392     0.10200
H1943       H  0.38453536  0.91454324  0.27388021     0.11200
H1944       H  0.45513073  0.90114710  0.29047382     0.17100
C1945       C  0.52083916  0.03107136  0.33574315    -0.01200
C1946       C  0.51252813  0.02169073  0.35257967     0.07400
C1947       C  0.51188788  0.03185041  0.37070693    -0.07100
C1948       C  0.51974358  0.05101847  0.37243614     0.04900
C1949       C  0.52830190  0.06047642  0.35560177    -0.14400
C1950       C  0.52839493  0.05036422  0.33730801    -0.07700
C1951       C  0.50466878  0.00114617  0.35186376     0.05800
C1952       C  0.51363407  0.98629380  0.36381492    -0.08800
C1953       C  0.50569660  0.96705446  0.36487720     0.00800
C1954       C  0.48854611  0.96245324  0.35367527     0.00700
C1955       C  0.48007827  0.97719862  0.34114867    -0.12400
C1956       C  0.48779987  0.99647672  0.34037008     0.01100
C1957       C  0.51545961  0.95240961  0.37750388     0.40500
C1958       C  0.47746209  0.01149582  0.32863787     0.37100
C1959       C  0.52267865  0.02084999  0.31699236     0.36800
C1960       C  0.51940156  0.06010138  0.39186443     0.37600
N1961       N  0.52336212  0.94071196  0.38762388    -0.43200
N1962       N  0.46920671  0.02355604  0.31925915    -0.43700
N1963       N  0.51920269  0.06727539  0.40748487    -0.41000
N1964       N  0.52416208  0.01266597  0.30196779    -0.42500
H1965       H  0.53512774  0.05718359  0.32429656     0.13700
H1966       H  0.50547200  0.02459633  0.38366552     0.10200
H1967       H  0.52668202  0.98987838  0.37260846     0.11200
H1968       H  0.46669621  0.97399630  0.33272244     0.17100
C1969       C  0.52608847  0.08506833  0.09013275    -0.01200
C1970       C  0.51795754  0.10423194  0.09302890     0.07400
C1971       C  0.53016331  0.11914890  0.10099372    -0.07100
C1972       C  0.54987015  0.11505618  0.10678571     0.04900
C1973       C  0.55777458  0.09558873  0.10478490    -0.14400
C1974       C  0.54576844  0.08097757  0.09584070    -0.07700
C1975       C  0.49661019  0.10880763  0.08863742     0.05800
C1976       C  0.48400813  0.11396841  0.10436642    -0.08800
C1977       C  0.46404171  0.11918420  0.10087283     0.00800
C1978       C  0.45611765  0.11898736  0.08122588     0.00700
C1979       C  0.46872729  0.11319025  0.06562698    -0.12400
C1980       C  0.48875211  0.10849523  0.06908786     0.01100
C1981       C  0.45234530  0.12521107  0.11770964     0.40500
C1982       C  0.50125984  0.10487110  0.05212134     0.37100
C1983       C  0.51417546  0.06899832  0.08244545     0.36800
C1984       C  0.56152738  0.13111204  0.11483924     0.37600
N1985       N  0.44311598  0.13013389  0.13128397    -0.43200
N1986       N  0.51128477  0.10222631  0.03847359    -0.43700
N1987       N  0.57084700  0.14405134  0.12121555    -0.41000
N1988       N  0.50462667  0.05613887  0.07625110    -0.42500
H1989       H  0.55135537  0.06588607  0.09433274     0.13700
H1990       H  0.52414551  0.13401120  0.10298499     0.10200
H1991       H  0.48992458  0.11427076  0.11945202     0.11200
H1992       H  0.46327672  0.11343885  0.05036460     0.17100
C1993       C  0.52060104  0.03299361  0.16395469    -0.01200
C1994       C  0.51538893  0.01640038  0.15243398     0.07400
C1995       C  0.52984087  0.00700816  0.14086089    -0.07100
C1996       C  0.54929660  0.01422973  0.14027937     0.04900
C1997       C  0.55450482  0.03117603  0.15153339    -0.14400
C1998       C  0.54001805  0.04009002  0.16357761    -0.07700
C1999       C  0.49476906  0.00903184  0.15169355     0.05800
C2000       C  0.48380678  0.01158779  0.13401451    -0.08800
C2001       C  0.46463073  0.00391708  0.13222397     0.00800
C2002       C  0.45622003  0.99320392  0.14836285     0.00700
C2003       C  0.46693231  0.99166912  0.16642704    -0.12400
C2004       C  0.48606511  0.99938389  0.16816671     0.01100
C2005       C  0.45422114  0.00702232  0.11354072     0.40500
C2006       C  0.49681643  0.99640069  0.18668120     0.37100
C2007       C  0.50603120  0.04357543  0.17548244     0.36800
C2008       C  0.56344201  0.00397220  0.12799302     0.37600
N2009       N  0.44589799  0.00956321  0.09856175    -0.43200
N2010       N  0.50540109  0.99405232  0.20153863    -0.43700
N2011       N  0.57469688  0.99564006  0.11813035    -0.41000
N2012       N  0.49431585  0.05202545  0.18468572    -0.42500
H2013       H  0.54356913  0.05329489  0.17207076     0.13700
H2014       H  0.52580897  0.99414061  0.13205884     0.10200
H2015       H  0.49040101  0.01939093  0.12147142     0.11200
H2016       H  0.46079357  0.98354135  0.17899387     0.17100
C2017       C  0.61170871  0.09017992  0.23617458    -0.01200
C2018       C  0.60539750  0.10982524  0.23978040     0.07400
C2019       C  0.60267749  0.12310002  0.22370686    -0.07100
C2020       C  0.60513741  0.11673032  0.20401800     0.04900
C2021       C  0.61008467  0.09656268  0.20024754    -0.14400
C2022       C  0.61395695  0.08371016  0.21657351    -0.07700
C2023       C  0.59893621  0.11564706  0.25993832     0.05800
C2024       C  0.61307152  0.12029299  0.27457033    -0.08800
C2025       C  0.60753302  0.12259070  0.29455059     0.00800
C2026       C  0.58748485  0.11995108  0.30009283     0.00700
C2027       C  0.57328583  0.11654381  0.28503042    -0.12400
C2028       C  0.57884173  0.11430165  0.26517252     0.01100
C2029       C  0.62282875  0.12711581  0.30895248     0.40500
C2030       C  0.56380924  0.10935127  0.25059762     0.37100
C2031       C  0.61485683  0.07610448  0.25237690     0.36800
C2032       C  0.60152102  0.13100720  0.18812518     0.37600
N2033       N  0.63511957  0.13081128  0.32045225    -0.43200
N2034       N  0.55179761  0.10532576  0.23891965    -0.43700
N2035       N  0.59867358  0.14251094  0.17541896    -0.41000
N2036       N  0.61737098  0.06492009  0.26543043    -0.42500
H2037       H  0.61806307  0.06829270  0.21406406     0.13700
H2038       H  0.59782705  0.13824118  0.22653961     0.10200
H2039       H  0.62854146  0.12141038  0.27047192     0.11200
H2040       H  0.55781659  0.11465981  0.28882970     0.17100
C2041       C  0.48472028  0.08739041  0.93025400    -0.01200
C2042       C  0.49203479  0.10698179  0.92788085     0.07400
C2043       C  0.48006702  0.12108876  0.91778335    -0.07100
C2044       C  0.46145812  0.11593716  0.90971371     0.04900
C2045       C  0.45432592  0.09612209  0.91152443    -0.14400
C2046       C  0.46611598  0.08220767  0.92224960    -0.07700
C2047       C  0.51238278  0.11292031  0.93495646     0.05800
C2048       C  0.52646110  0.11920940  0.92091474    -0.08800
C2049       C  0.54545742  0.12566519  0.92679868     0.00800
C2050       C  0.55090553  0.12597446  0.94728819     0.00700
C2051       C  0.53684813  0.11923967  0.96127580    -0.12400
C2052       C  0.51781260  0.11294782  0.95535193     0.01100
C2053       C  0.55888092  0.13205106  0.91137001     0.40500
C2054       C  0.50374914  0.10757542  0.97058775     0.37100
C2055       C  0.49648301  0.07200516  0.93990624     0.36800
C2056       C  0.45044808  0.13122330  0.89904511     0.37600
N2057       N  0.56956891  0.13717621  0.89893166    -0.43200
N2058       N  0.49244868  0.10330270  0.98278452    -0.43700
N2059       N  0.44164215  0.14348281  0.89047211    -0.41000
N2060       N  0.50587666  0.05967412  0.94769351    -0.42500
H2061       H  0.46120065  0.06688933  0.92371000     0.13700
H2062       H  0.48546791  0.13620083  0.91590261     0.10200
H2063       H  0.52251300  0.11921808  0.90519922     0.11200
H2064       H  0.54041784  0.11960672  0.97706406     0.17100
C2065       C  0.40930267  0.02289937  0.63615442    -0.01200
C2066       C  0.41287509  0.01572766  0.61678970     0.07400
C2067       C  0.42253943  0.02836456  0.60311904    -0.07100
C2068       C  0.42871933  0.04766150  0.60849321     0.04900
C2069       C  0.42494027  0.05491980  0.62791125    -0.14400
C2070       C  0.41505593  0.04223137  0.64140538    -0.07700
C2071       C  0.40609211  0.99533648  0.61065552     0.05800
C2072       C  0.38602296  0.99040396  0.61276920    -0.08800
C2073       C  0.37887292  0.97140556  0.60801263     0.00800
C2074       C  0.39178262  0.95675060  0.60010934     0.00700
C2075       C  0.41195743  0.96169907  0.59807130    -0.12400
C2076       C  0.41917647  0.98061388  0.60344212     0.01100
C2077       C  0.35807933  0.96771001  0.61127819     0.40500
C2078       C  0.44015960  0.98434946  0.60192621     0.37100
C2079       C  0.40068897  0.01026586  0.65133023     0.36800
C2080       C  0.43952135  0.05925189  0.59396348     0.37600
N2081       N  0.34142562  0.96484907  0.61406619    -0.43200
N2082       N  0.45699743  0.98730677  0.60080941    -0.43700
N2083       N  0.44827972  0.06845235  0.58231604    -0.41000
N2084       N  0.39384643  0.00002527  0.66342620    -0.42500
H2085       H  0.41237923  0.04712206  0.65651143     0.13700
H2086       H  0.42548107  0.02305029  0.58823079     0.10200
H2087       H  0.37579492  0.00154477  0.61826921     0.11200
H2088       H  0.42215782  0.95083703  0.59203900     0.17100
C2089       C  0.39886281  0.10034119  0.77817968    -0.01200
C2090       C  0.41222321  0.11594091  0.77401198     0.07400
C2091       C  0.41976441  0.12721773  0.78988470    -0.07100
C2092       C  0.41576765  0.12189037  0.80975771     0.04900
C2093       C  0.40409626  0.10489660  0.81389817    -0.14400
C2094       C  0.39496971  0.09497070  0.79795238    -0.07700
C2095       C  0.42043652  0.11865409  0.75361641     0.05800
C2096       C  0.40767995  0.12314816  0.73754081    -0.08800
C2097       C  0.41430724  0.12223155  0.71777692     0.00800
C2098       C  0.43423168  0.11690433  0.71382787     0.00700
C2099       C  0.44721730  0.11372010  0.73009193    -0.12400
C2100       C  0.44052895  0.11441994  0.74975696     0.01100
C2101       C  0.40006481  0.12614005  0.70203133     0.40500
C2102       C  0.45435403  0.10942277  0.76562861     0.37100
C2103       C  0.39016813  0.08854254  0.76250508     0.36800
C2104       C  0.42516629  0.13310058  0.82544624     0.37600
N2105       N  0.38852941  0.12926829  0.68950750    -0.43200
N2106       N  0.46544755  0.10541893  0.77831812    -0.43700
N2107       N  0.43267022  0.14213527  0.83800788    -0.41000
N2108       N  0.38310823  0.07915387  0.74995182    -0.42500
H2109       H  0.38569432  0.08211398  0.80091352     0.13700
H2110       H  0.42975933  0.13946304  0.78674988     0.10200
H2111       H  0.39225515  0.12656915  0.74044055     0.11200
H2112       H  0.46258994  0.10984856  0.72750035     0.17100
C2113       C  0.53269231  0.98604959  0.66787693    -0.01200
C2114       C  0.51821633  0.99357911  0.65448440     0.07400
C2115       C  0.51045343  0.98104778  0.63972707    -0.07100
C2116       C  0.51723261  0.96138929  0.63787602     0.04900
C2117       C  0.53170704  0.95385257  0.65132683    -0.14400
C2118       C  0.53890425  0.96624223  0.66650446    -0.07700
C2119       C  0.51141492  0.01462298  0.65519553     0.05800
C2120       C  0.51339684  0.02675594  0.63816022    -0.08800
C2121       C  0.50629846  0.04641032  0.63783075     0.00800
C2122       C  0.49775593  0.05455379  0.65519886     0.00700
C2123       C  0.49631102  0.04241914  0.67238013    -0.12400
C2124       C  0.50243810  0.02250474  0.67230297     0.01100
C2125       C  0.50712383  0.05730671  0.61915819     0.40500
C2126       C  0.49788741  0.01005395  0.68936838     0.37100
C2127       C  0.54243999  0.99867573  0.68223221     0.36800
C2128       C  0.50928162  0.94946391  0.62192592     0.37600
N2129       N  0.50756879  0.06580889  0.60405194    -0.43200
N2130       N  0.49411230  0.00001545  0.70295208    -0.43700
N2131       N  0.50293189  0.93998873  0.60906214    -0.41000
N2132       N  0.55030777  0.00876635  0.69370706    -0.42500
H2133       H  0.55045694  0.96087196  0.67656949     0.13700
H2134       H  0.49931472  0.98678466  0.62939015     0.10200
H2135       H  0.52003239  0.02063316  0.62486186     0.11200
H2136       H  0.48912545  0.04805090  0.68559779     0.17100
C2137       C  0.52123417  0.93042904  0.86420669    -0.01200
C2138       C  0.51631772  0.92769515  0.88447548     0.07400
C2139       C  0.53110948  0.93110605  0.89900825    -0.07100
C2140       C  0.55032090  0.93732307  0.89363042     0.04900
C2141       C  0.55523412  0.93978504  0.87325525    -0.14400
C2142       C  0.54038636  0.93615747  0.85886845    -0.07700
C2143       C  0.49603506  0.92078539  0.89046750     0.05800
C2144       C  0.48815531  0.90359476  0.88165127    -0.08800
C2145       C  0.46903767  0.89685732  0.88607795     0.00800
C2146       C  0.45756259  0.90664142  0.90065658     0.00700
C2147       C  0.46534177  0.92402369  0.90932567    -0.12400
C2148       C  0.48418924  0.93126156  0.90417627     0.01100
C2149       C  0.46163175  0.87998038  0.87513115     0.40500
C2150       C  0.49081930  0.94970721  0.91284391     0.37100
C2151       C  0.50673102  0.92805779  0.84844788     0.36800
C2152       C  0.56454098  0.94100438  0.90933188     0.37600
N2153       N  0.45564363  0.86659985  0.86617605    -0.43200
N2154       N  0.49610074  0.96453592  0.91973308    -0.43700
N2155       N  0.57583115  0.94397345  0.92203091    -0.41000
N2156       N  0.49514821  0.92603884  0.83581729    -0.42500
H2157       H  0.54352778  0.93828825  0.84315522     0.13700
H2158       H  0.52766417  0.92884676  0.91463469     0.10200
H2159       H  0.49699667  0.89537010  0.87107167     0.11200
H2160       H  0.45684372  0.93185359  0.92046520     0.17100
C2161       C  0.49559589  0.05254598  0.83554581    -0.01200
C2162       C  0.50429940  0.03556728  0.84442308     0.07400
C2163       C  0.49264444  0.02240620  0.85567287    -0.07100
C2164       C  0.47249869  0.02624682  0.85865717     0.04900
C2165       C  0.46376126  0.04357571  0.85015174    -0.14400
C2166       C  0.47546047  0.05628051  0.83824589    -0.07700
C2167       C  0.52555034  0.03101199  0.84221231     0.05800
C2168       C  0.53810630  0.03322481  0.85873284    -0.08800
C2169       C  0.55740669  0.02560116  0.85855269     0.00800
C2170       C  0.56423428  0.01524405  0.84161079     0.00700
C2171       C  0.55218419  0.01491081  0.82437594    -0.12400
C2172       C  0.53290835  0.02263911  0.82460749     0.01100
C2173       C  0.56939940  0.02783982  0.87631823     0.40500
C2174       C  0.52040343  0.02048826  0.80718367     0.37100
C2175       C  0.50720419  0.06683161  0.82444835     0.36800
C2176       C  0.46137040  0.01224270  0.87058616     0.37600
N2177       N  0.57895815  0.02963944  0.89058967    -0.43200
N2178       N  0.51025073  0.01886538  0.79330860    -0.43700
N2179       N  0.45255962  0.00093093  0.88015298    -0.41000
N2180       N  0.51645339  0.07838892  0.81563891    -0.42500
H2181       H  0.46915102  0.06979377  0.83177063     0.13700
H2182       H  0.49940987  0.00918710  0.86231540     0.10200
H2183       H  0.53247973  0.04011703  0.87212581     0.11200
H2184       H  0.55719003  0.00724331  0.81117230     0.17100
C2185       C  0.62392033  0.90023923  0.72323365    -0.01200
C2186       C  0.61114649  0.90019377  0.73977807     0.07400
C2187       C  0.59137688  0.89439534  0.73707292    -0.07100
C2188       C  0.58373104  0.89073526  0.71800811     0.04900
C2189       C  0.59594068  0.89322160  0.70108482    -0.14400
C2190       C  0.61627310  0.89679260  0.70407774    -0.07700
C2191       C  0.61673823  0.90980284  0.75890275     0.05800
C2192       C  0.62194580  0.93002497  0.75828720    -0.08800
C2193       C  0.62323266  0.94119044  0.77571654     0.00800
C2194       C  0.61887285  0.93222409  0.79434820     0.00700
C2195       C  0.61523339  0.91156743  0.79513516    -0.12400
C2196       C  0.61416475  0.90033977  0.77759299     0.01100
C2197       C  0.62881969  0.96189373  0.77390296     0.40500
C2198       C  0.61011214  0.87924889  0.77902409     0.37100
C2199       C  0.64472910  0.90464835  0.72551551     0.36800
C2200       C  0.56308528  0.88536707  0.71632948     0.37600
N2201       N  0.63337246  0.97846133  0.77242776    -0.43200
N2202       N  0.60697106  0.86231739  0.78009140    -0.43700
N2203       N  0.54654304  0.88105816  0.71501080    -0.41000
N2204       N  0.66140953  0.90814101  0.72741689    -0.42500
H2205       H  0.62601386  0.89819364  0.69136407     0.13700
H2206       H  0.58148300  0.89410329  0.74974106     0.10200
H2207       H  0.62405656  0.93741979  0.74399388     0.11200
H2208       H  0.61227838  0.90434682  0.80934312     0.17100
C2209       C  0.60798187  0.98937985  0.41233415    -0.01200
C2210       C  0.62150927  0.00448894  0.40677743     0.07400
C2211       C  0.64176211  0.99976041  0.40646948    -0.07100
C2212       C  0.64865749  0.98053412  0.41123368     0.04900
C2213       C  0.63521070  0.96545411  0.41733237    -0.14400
C2214       C  0.61491458  0.97024685  0.41786590    -0.07700
C2215       C  0.61501488  0.02523125  0.40106805     0.05800
C2216       C  0.60373971  0.03656654  0.41441165    -0.08800
C2217       C  0.59710582  0.05591272  0.40935295     0.00800
C2218       C  0.60188930  0.06446110  0.39057731     0.00700
C2219       C  0.61394068  0.05339615  0.37768315    -0.12400
C2220       C  0.62035879  0.03404975  0.38264440     0.01100
C2221       C  0.58532750  0.06648447  0.42370990     0.40500
C2222       C  0.63167407  0.02325524  0.36806699     0.37100
C2223       C  0.58687032  0.99289316  0.41179362     0.36800
C2224       C  0.66976387  0.97709798  0.41015849     0.37600
N2225       N  0.57590635  0.07494625  0.43524873    -0.43200
N2226       N  0.64081334  0.01467210  0.35639457    -0.43700
N2227       N  0.68668348  0.97450007  0.40909382    -0.41000
N2228       N  0.56993372  0.99563011  0.41124649    -0.42500
H2229       H  0.60437866  0.95895049  0.42242569     0.13700
H2230       H  0.65234017  0.01124113  0.40248199     0.10200
H2231       H  0.59998870  0.03020998  0.42883103     0.11200
H2232       H  0.61767378  0.05948339  0.36314587     0.17100
C2233       C  0.91507249  0.93562205  0.48214330    -0.01200
C2234       C  0.91052479  0.91656765  0.49009312     0.07400
C2235       C  0.89945863  0.90347524  0.47819605    -0.07100
C2236       C  0.89252614  0.90914226  0.45907994     0.04900
C2237       C  0.89635568  0.92853828  0.45138719    -0.14400
C2238       C  0.90806120  0.94136234  0.46307843    -0.07700
C2239       C  0.91649774  0.91011655  0.51088991     0.05800
C2240       C  0.90177074  0.90444126  0.52456015    -0.08800
C2241       C  0.90664313  0.89732069  0.54386177     0.00800
C2242       C  0.92670908  0.89620206  0.55017520     0.00700
C2243       C  0.94136836  0.90223803  0.53653728    -0.12400
C2244       C  0.93652158  0.90865953  0.51706073     0.01100
C2245       C  0.89071727  0.89086938  0.55660223     0.40500
C2246       C  0.95248093  0.91220316  0.50327678     0.37100
C2247       C  0.92620105  0.94994831  0.49354741     0.36800
C2248       C  0.88142712  0.89465559  0.44786228     0.37600
N2249       N  0.87789640  0.88557986  0.56669749    -0.43200
N2250       N  0.96533218  0.91490851  0.49226474    -0.43700
N2251       N  0.87260271  0.88294382  0.43891624    -0.41000
N2252       N  0.93528371  0.96140655  0.50256224    -0.42500
H2253       H  0.91115618  0.95631618  0.45766830     0.13700
H2254       H  0.89608521  0.88870904  0.48396216     0.10200
H2255       H  0.88633589  0.90524208  0.51998229     0.11200
H2256       H  0.95688482  0.90087981  0.54068675     0.17100
C2257       C  0.78684216  0.89534404  0.38922961    -0.01200
C2258       C  0.76901996  0.90640835  0.38809858     0.07400
C2259       C  0.76998821  0.92715774  0.38529472    -0.07100
C2260       C  0.78811801  0.93706950  0.38498538     0.04900
C2261       C  0.80591653  0.92621666  0.38817970    -0.14400
C2262       C  0.80507117  0.90528656  0.38931765    -0.07700
C2263       C  0.74946870  0.89766840  0.39330969     0.05800
C2264       C  0.74766797  0.88792140  0.41185244    -0.08800
C2265       C  0.72913307  0.88533446  0.42058703     0.00800
C2266       C  0.71210248  0.89338187  0.41111814     0.00700
C2267       C  0.71354294  0.90051389  0.39142265    -0.12400
C2268       C  0.73207587  0.90250976  0.38238351     0.01100
C2269       C  0.72809267  0.87508213  0.43961092     0.40500
C2270       C  0.73298702  0.91077668  0.36243438     0.37100
C2271       C  0.78679478  0.87387313  0.39102281     0.36800
C2272       C  0.78775441  0.95843689  0.38190243     0.37600
N2273       N  0.72722752  0.86667446  0.45474433    -0.43200
N2274       N  0.73372704  0.91742559  0.34645808    -0.43700
N2275       N  0.78734403  0.97553515  0.37935538    -0.41000
N2276       N  0.78677151  0.85666685  0.39254833    -0.42500
H2277       H  0.81859569  0.89668336  0.39128253     0.13700
H2278       H  0.75644622  0.93590320  0.38451517     0.10200
H2279       H  0.76081388  0.88375851  0.42033715     0.11200
H2280       H  0.70044593  0.90609372  0.38368697     0.17100
C2281       C  0.94080562  0.11873538  0.48502357    -0.01200
C2282       C  0.92065465  0.11512609  0.48900659     0.07400
C2283       C  0.90696322  0.11604910  0.47314012    -0.07100
C2284       C  0.91300198  0.12068588  0.45357739     0.04900
C2285       C  0.93321042  0.12450810  0.44950646    -0.14400
C2286       C  0.94690546  0.12321919  0.46549349    -0.07700
C2287       C  0.91371351  0.10950752  0.50944635     0.05800
C2288       C  0.90331279  0.12339766  0.52093250    -0.08800
C2289       C  0.89580385  0.11817169  0.53983155     0.00800
C2290       C  0.89866745  0.09859535  0.54764578     0.00700
C2291       C  0.90963393  0.08497885  0.53621949    -0.12400
C2292       C  0.91697464  0.09020990  0.51734899     0.01100
C2293       C  0.88498942  0.13315767  0.55061754     0.40500
C2294       C  0.92705299  0.07522354  0.50588137     0.37100
C2295       C  0.95536444  0.11858993  0.50092748     0.36800
C2296       C  0.89811931  0.12120695  0.43801355     0.37600
N2297       N  0.87630669  0.14519366  0.55922443    -0.43200
N2298       N  0.93507064  0.06326935  0.49656212    -0.43700
N2299       N  0.88612514  0.12155182  0.42558086    -0.41000
N2300       N  0.96692873  0.11852880  0.51376628    -0.42500
H2301       H  0.96239995  0.12652739  0.46293357     0.13700
H2302       H  0.89146996  0.11305035  0.47605540     0.10200
H2303       H  0.90083308  0.13831295  0.51498364     0.11200
H2304       H  0.91185893  0.06983912  0.54165318     0.17100
C2305       C  0.85352722  0.00864586  0.52518561    -0.01200
C2306       C  0.83930353  0.01613894  0.51154315     0.07400
C2307       C  0.82547757  0.03029181  0.51776503    -0.07100
C2308       C  0.82678937  0.03844200  0.53684556     0.04900
C2309       C  0.84251705  0.03261481  0.54985245    -0.14400
C2310       C  0.85508282  0.01693905  0.54416148    -0.07700
C2311       C  0.83941754  0.01010879  0.49044280     0.05800
C2312       C  0.82517582  0.99666474  0.48366737    -0.08800
C2313       C  0.82633993  0.98873014  0.46449371     0.00800
C2314       C  0.84216570  0.99429600  0.45178267     0.00700
C2315       C  0.85542267  0.00907116  0.45818879    -0.12400
C2316       C  0.85417857  0.01695503  0.47734554     0.01100
C2317       C  0.81143697  0.97445510  0.45875027     0.40500
C2318       C  0.86854383  0.03164007  0.48346501     0.37100
C2319       C  0.86701619  0.99285796  0.51977685     0.36800
C2320       C  0.81216057  0.05316252  0.54225836     0.37600
N2321       N  0.79941850  0.96303010  0.45430924    -0.43200
N2322       N  0.88004219  0.04342368  0.48833147    -0.43700
N2323       N  0.80037894  0.06490449  0.54657316    -0.41000
N2324       N  0.87773046  0.98013414  0.51543965    -0.42500
H2325       H  0.86687432  0.01187004  0.55408250     0.13700
H2326       H  0.81412377  0.03553798  0.50740913     0.10200
H2327       H  0.81356801  0.99178057  0.49367817     0.11200
H2328       H  0.86744829  0.01378783  0.44862536     0.17100
C2329       C  0.63795414  0.02138688  0.59742319    -0.01200
C2330       C  0.61966646  0.01236338  0.59254118     0.07400
C2331       C  0.60538763  0.02384434  0.58209371    -0.07100
C2332       C  0.60922982  0.04365684  0.57613944     0.04900
C2333       C  0.62759926  0.05257460  0.58091459    -0.14400
C2334       C  0.64162344  0.04122281  0.59180855    -0.07700
C2335       C  0.61477959  0.99153812  0.59934562     0.05800
C2336       C  0.61664391  0.98672045  0.61968813    -0.08800
C2337       C  0.61165313  0.96780972  0.62713530     0.00800
C2338       C  0.60388510  0.95307594  0.61419587     0.00700
C2339       C  0.60232910  0.95777722  0.59372390    -0.12400
C2340       C  0.60784047  0.97665544  0.58623588     0.01100
C2341       C  0.61398657  0.96451717  0.64835625     0.40500
C2342       C  0.60628140  0.98029336  0.56502667     0.37100
C2343       C  0.65357428  0.01044798  0.60760977     0.36800
C2344       C  0.59388532  0.05456936  0.56556399     0.37600
N2345       N  0.61596414  0.96203480  0.66536859    -0.43200
N2346       N  0.60493172  0.98310243  0.54800925    -0.43700
N2347       N  0.58151158  0.06329013  0.55714516    -0.41000
N2348       N  0.66609275  0.00176220  0.61584457    -0.42500
H2349       H  0.65595692  0.04760410  0.59532575     0.13700
H2350       H  0.59107177  0.01736485  0.57872209     0.10200
H2351       H  0.62166369  0.99802150  0.62999834     0.11200
H2352       H  0.59647320  0.94678558  0.58353036     0.17100
C2353       C  0.66641856  0.03270342  0.49174621    -0.01200
C2354       C  0.68268784  0.02123147  0.49863779     0.07400
C2355       C  0.69750662  0.03033722  0.51002245    -0.07100
C2356       C  0.69509132  0.04994858  0.51662368     0.04900
C2357       C  0.67722798  0.06041025  0.51228708    -0.14400
C2358       C  0.66369160  0.05205523  0.49875732    -0.07700
C2359       C  0.68336757  0.99940577  0.49550845     0.05800
C2360       C  0.69777258  0.99123831  0.48310294    -0.08800
C2361       C  0.69674447  0.97120808  0.47743276     0.00800
C2362       C  0.68078932  0.95915170  0.48405386     0.00700
C2363       C  0.66764203  0.96695901  0.49813731    -0.12400
C2364       C  0.66895075  0.98684448  0.50402708     0.01100
C2365       C  0.71150427  0.96401780  0.46376370     0.40500
C2366       C  0.65500175  0.99430596  0.51840201     0.37100
C2367       C  0.65196532  0.02462234  0.47805856     0.36800
C2368       C  0.71092009  0.05861757  0.52823362     0.37600
N2369       N  0.72339445  0.95830100  0.45285096    -0.43200
N2370       N  0.64397942  0.00048713  0.52995046    -0.43700
N2371       N  0.72371171  0.06558705  0.53736874    -0.41000
N2372       N  0.64046186  0.01818991  0.46699450    -0.42500
H2373       H  0.65029380  0.06010754  0.49459267     0.13700
H2374       H  0.71049090  0.02179967  0.51457177     0.10200
H2375       H  0.70923891  0.00077943  0.47704268     0.11200
H2376       H  0.65565475  0.95783478  0.50378544     0.17100
C2377       C  0.73060353  0.11756600  0.61134901    -0.01200
C2378       C  0.74768477  0.12039626  0.59965795     0.07400
C2379       C  0.74538430  0.12545813  0.57940696    -0.07100
C2380       C  0.72666616  0.12635039  0.57041044     0.04900
C2381       C  0.70963686  0.12156545  0.58165599    -0.14400
C2382       C  0.71180212  0.11815679  0.60230721    -0.07700
C2383       C  0.76793393  0.11511214  0.60700922     0.05800
C2384       C  0.77126664  0.09571871  0.61439479    -0.08800
C2385       C  0.79047695  0.08808876  0.61653722     0.00800
C2386       C  0.80686764  0.09974308  0.61051007     0.00700
C2387       C  0.80362902  0.11983581  0.60517501    -0.12400
C2388       C  0.78436846  0.12760381  0.60353833     0.01100
C2389       C  0.79273254  0.06804272  0.62436786     0.40500
C2390       C  0.78177690  0.14818021  0.59746010     0.37100
C2391       C  0.73202055  0.11335637  0.63247885     0.36800
C2392       C  0.72565746  0.13153736  0.54945394     0.37600
N2393       N  0.79446380  0.05202084  0.63075970    -0.43200
N2394       N  0.77964552  0.16466076  0.59257681    -0.43700
N2395       N  0.72494865  0.13573862  0.53267299    -0.41000
N2396       N  0.73313363  0.10992098  0.64940471    -0.42500
H2397       H  0.69889859  0.11487586  0.61127560     0.13700
H2398       H  0.75837663  0.12761428  0.57022721     0.10200
H2399       H  0.75879503  0.08599352  0.61730056     0.11200
H2400       H  0.81604505  0.12920745  0.60111227     0.17100
C2401       C  0.00437874  0.89208197  0.26867610    -0.01200
C2402       C  0.01906094  0.87855810  0.27518446     0.07400
C2403       C  0.03082339  0.86935358  0.26078926    -0.07100
C2404       C  0.03038180  0.87580934  0.24069906     0.04900
C2405       C  0.01790879  0.89211383  0.23453834    -0.14400
C2406       C  0.00351137  0.89819140  0.24861462    -0.07700
C2407       C  0.02337319  0.87491398  0.29687211     0.05800
C2408       C  0.02093621  0.85575947  0.30506896    -0.08800
C2409       C  0.02607327  0.85157218  0.32505470     0.00800
C2410       C  0.03411282  0.86670373  0.33730107     0.00700
C2411       C  0.03652237  0.88586773  0.32905786    -0.12400
C2412       C  0.03111608  0.89009955  0.30916098     0.01100
C2413       C  0.02401221  0.83129381  0.33219250     0.40500
C2414       C  0.03427451  0.91003923  0.30152942     0.37100
C2415       C  0.99000370  0.89996559  0.28237509     0.36800
C2416       C  0.04470679  0.86686326  0.22761648     0.37600
N2417       N  0.02243047  0.81501234  0.33784738    -0.43200
N2418       N  0.03676911  0.92605002  0.29546655    -0.43700
N2419       N  0.05642907  0.85950723  0.21753170    -0.41000
N2420       N  0.97843461  0.90628431  0.29329781    -0.42500
H2421       H  0.99151550  0.90807393  0.24443624     0.13700
H2422       H  0.04160240  0.85820704  0.26554668     0.10200
H2423       H  0.01523564  0.84395751  0.29572143     0.11200
H2424       H  0.04272210  0.89759479  0.33817786     0.17100
C2425       C  0.09917780  0.96504495  0.19598940    -0.01200
C2426       C  0.08069834  0.96404727  0.20537650     0.07400
C2427       C  0.07475115  0.98008422  0.21710306    -0.07100
C2428       C  0.08595651  0.99764277  0.21815744     0.04900
C2429       C  0.10305154  0.00028492  0.20590228    -0.14400
C2430       C  0.11018892  0.98278835  0.19647614    -0.07700
C2431       C  0.06819596  0.94573938  0.20522786     0.05800
C2432       C  0.06851325  0.93353627  0.22209219    -0.08800
C2433       C  0.05444707  0.91847282  0.22511001     0.00800
C2434       C  0.03919917  0.91476375  0.21038910     0.00700
C2435       C  0.04063098  0.92618195  0.19241557    -0.12400
C2436       C  0.05452196  0.94160451  0.18993395     0.01100
C2437       C  0.05610463  0.90948810  0.24462505     0.40500
C2438       C  0.05366311  0.95379114  0.17207127     0.37100
C2439       C  0.10744805  0.94779705  0.18637135     0.36800
C2440       C  0.07870131  0.01277054  0.23144448     0.37600
N2441       N  0.05892817  0.90340107  0.26061662    -0.43200
N2442       N  0.05293108  0.96358186  0.15776008    -0.43700
N2443       N  0.07240395  0.02447779  0.24228274    -0.41000
N2444       N  0.11419047  0.93389037  0.17888878    -0.42500
H2445       H  0.12445411  0.98264321  0.18930403     0.13700
H2446       H  0.06119506  0.97881428  0.22561278     0.10200
H2447       H  0.07926948  0.93677319  0.23375655     0.11200
H2448       H  0.02975040  0.92398390  0.18066356     0.17100
C2449       C  0.11789775  0.04888461  0.25427112    -0.01200
C2450       C  0.13129992  0.03701804  0.26522354     0.07400
C2451       C  0.13951947  0.02022564  0.25601856    -0.07100
C2452       C  0.13464817  0.01531791  0.23609597     0.04900
C2453       C  0.12100413  0.02726579  0.22465704    -0.14400
C2454       C  0.11267953  0.04384202  0.23477926    -0.07700
C2455       C  0.13502968  0.04124630  0.28680855     0.05800
C2456       C  0.12552216  0.02949465  0.30126506    -0.08800
C2457       C  0.12562696  0.03491718  0.32146915     0.00800
C2458       C  0.13541023  0.05246738  0.32762722     0.00700
C2459       C  0.14515355  0.06407782  0.31317276    -0.12400
C2460       C  0.14512052  0.05857914  0.29298218     0.01100
C2461       C  0.11452213  0.02286932  0.33537627     0.40500
C2462       C  0.15537395  0.07104530  0.27876808     0.37100
C2463       C  0.10819595  0.06581005  0.26322523     0.36800
C2464       C  0.14352652  0.99748987  0.22818960     0.37600
N2465       N  0.10545961  0.01328564  0.34645782    -0.43200
N2466       N  0.16357357  0.08104183  0.26736111    -0.43700
N2467       N  0.15081612  0.98316085  0.22210866    -0.41000
N2468       N  0.10052230  0.07936936  0.27044192    -0.42500
H2469       H  0.10071074  0.05249628  0.22847958     0.13700
H2470       H  0.14958809  0.01073054  0.26453850     0.10200
H2471       H  0.11728003  0.01646642  0.29661537     0.11200
H2472       H  0.15306529  0.07734870  0.31770194     0.17100
C2473       C  0.05023489  0.10017696  0.18871025    -0.01200
C2474       C  0.05347748  0.08259078  0.19976522     0.07400
C2475       C  0.04161737  0.07880997  0.21642844    -0.07100
C2476       C  0.02602890  0.09159629  0.22162044     0.04900
C2477       C  0.02220235  0.10958121  0.21049995    -0.14400
C2478       C  0.03508467  0.11336248  0.19410362    -0.07700
C2479       C  0.06873271  0.06751852  0.19412235     0.05800
C2480       C  0.08877676  0.07280204  0.19329284    -0.08800
C2481       C  0.10366610  0.05809596  0.19264560     0.00800
C2482       C  0.09847902  0.03749239  0.19464175     0.00700
C2483       C  0.07842787  0.03284077  0.19046266    -0.12400
C2484       C  0.06362604  0.04750446  0.19083911     0.01100
C2485       C  0.12389144  0.06498540  0.19306018     0.40500
C2486       C  0.04319416  0.04159615  0.18846882     0.37100
C2487       C  0.06115769  0.10426096  0.17068274     0.36800
C2488       C  0.01393365  0.08521055  0.23816909     0.37600
N2489       N  0.13989352  0.07112365  0.19330938    -0.43200
N2490       N  0.02679264  0.03696847  0.18659028    -0.43700
N2491       N  0.00452138  0.08005452  0.25160636    -0.41000
N2492       N  0.06980088  0.10748993  0.15617355    -0.42500
H2493       H  0.03264008  0.12566194  0.18390532     0.13700
H2494       H  0.04420944  0.06531731  0.22516613     0.10200
H2495       H  0.09289521  0.08835169  0.19458578     0.11200
H2496       H  0.07380392  0.01764103  0.18815809     0.17100
C2497       C  0.01403763  0.13056085  0.27058217    -0.01200
C2498       C  0.99633572  0.13943784  0.27708266     0.07400
C2499       C  0.98337665  0.14745000  0.26262684    -0.07100
C2500       C  0.98659664  0.14457350  0.24209283     0.04900
C2501       C  0.00253152  0.13215083  0.23554692    -0.14400
C2502       C  0.01738225  0.12782896  0.25007347    -0.07700
C2503       C  0.99112345  0.14062080  0.29878692     0.05800
C2504       C  0.99939010  0.15566701  0.31051147    -0.08800
C2505       C  0.99429692  0.15777605  0.33070875     0.00800
C2506       C  0.98023547  0.14480015  0.33971595     0.00700
C2507       C  0.97242940  0.12933474  0.32798420    -0.12400
C2508       C  0.97790986  0.12704530  0.30786568     0.01100
C2509       C  0.00356500  0.17376944  0.34153456     0.40500
C2510       C  0.97010856  0.11038097  0.29690330     0.37100
C2511       C  0.02854333  0.12315323  0.28477839     0.36800
C2512       C  0.97169854  0.15238547  0.22851571     0.37600
N2513       N  0.01111710  0.18657704  0.35013517    -0.43200
N2514       N  0.96403878  0.09686356  0.28822256    -0.43700
N2515       N  0.95950006  0.15877778  0.21800610    -0.41000
N2516       N  0.04010461  0.11712028  0.29618970    -0.42500
H2517       H  0.03128532  0.12114015  0.24583812     0.13700
H2518       H  0.97022560  0.15534066  0.26743905     0.10200
H2519       H  0.00978260  0.16597497  0.30376532     0.11200
H2520       H  0.96193918  0.11899375  0.33449933     0.17100
C2521       C  0.94690241  0.04235797  0.22773483    -0.01200
C2522       C  0.94483960  0.05656563  0.21225280     0.07400
C2523       C  0.93046115  0.05347195  0.19757694    -0.07100
C2524       C  0.91775990  0.03693040  0.19836233     0.04900
C2525       C  0.91792268  0.02364052  0.21540286    -0.14400
C2526       C  0.93363000  0.02643205  0.22921529    -0.07700
C2527       C  0.95760237  0.07467859  0.21124852     0.05800
C2528       C  0.97055167  0.07765443  0.19529955    -0.08800
C2529       C  0.98397998  0.09370242  0.19499399     0.00800
C2530       C  0.98518286  0.10734529  0.21135659     0.00700
C2531       C  0.97119426  0.10409115  0.22685868    -0.12400
C2532       C  0.95730838  0.08872856  0.22651887     0.01100
C2533       C  0.99632852  0.09531638  0.17756011     0.40500
C2534       C  0.94285092  0.08755053  0.24229144     0.37100
C2535       C  0.96304429  0.04334208  0.24194543     0.36800
C2536       C  0.90686923  0.03344184  0.18014061     0.37600
N2537       N  0.00584538  0.09626834  0.16329969    -0.43200
N2538       N  0.93115921  0.08662170  0.25479155    -0.43700
N2539       N  0.89864172  0.03096728  0.16516797    -0.41000
N2540       N  0.97602498  0.04395369  0.25329391    -0.42500
H2541       H  0.93571902  0.01596607  0.24140467     0.13700
H2542       H  0.92957383  0.06380065  0.18502002     0.10200
H2543       H  0.97046640  0.06708037  0.18315320     0.11200
H2544       H  0.97116767  0.11256548  0.24037075     0.17100
C2545       C  0.97143442  0.92996450  0.19312498    -0.01200
C2546       C  0.97009499  0.94651168  0.20573897     0.07400
C2547       C  0.98566905  0.94989719  0.21918967    -0.07100
C2548       C  0.00145346  0.93641902  0.22154276     0.04900
C2549       C  0.00238670  0.91858471  0.20996526    -0.14400
C2550       C  0.98779338  0.91692519  0.19461665    -0.07700
C2551       C  0.95187094  0.95926250  0.20729249     0.05800
C2552       C  0.94322060  0.96054687  0.22602237    -0.08800
C2553       C  0.92885909  0.97489960  0.23026506     0.00800
C2554       C  0.91993560  0.98688582  0.21461203     0.00700
C2555       C  0.92875953  0.98509356  0.19552687    -0.12400
C2556       C  0.94467041  0.97190088  0.19191686     0.01100
C2557       C  0.92735682  0.97880215  0.25132559     0.40500
C2558       C  0.95432667  0.97272259  0.17281353     0.37100
C2559       C  0.95562591  0.92527432  0.17935754     0.36800
C2560       C  0.01569544  0.94121921  0.23694273     0.37600
N2561       N  0.92738539  0.98180438  0.26828726    -0.43200
N2562       N  0.96219716  0.97341771  0.15755391    -0.43700
N2563       N  0.02660045  0.94565588  0.24952952    -0.41000
N2564       N  0.94290222  0.92142116  0.16840653    -0.42500
H2565       H  0.98849871  0.90521177  0.18376307     0.13700
H2566       H  0.98498353  0.96286594  0.22871599     0.10200
H2567       H  0.94931345  0.95145380  0.23812871     0.11200
H2568       H  0.92389002  0.99489659  0.18350567     0.17100
C2569       C  0.88801132  0.97023971  0.30922223    -0.01200
C2570       C  0.87952126  0.98786560  0.30094797     0.07400
C2571       C  0.86803002  0.99992574  0.31340914    -0.07100
C2572       C  0.86535911  0.99508741  0.33369409     0.04900
C2573       C  0.87447205  0.97779446  0.34216865    -0.14400
C2574       C  0.88558103  0.96553174  0.32952896    -0.07700
C2575       C  0.88278617  0.99402831  0.27955957     0.05800
C2576       C  0.87799043  0.98084090  0.26420292    -0.08800
C2577       C  0.88378624  0.98451153  0.24440866     0.00800
C2578       C  0.89480787  0.00201370  0.23924991     0.00700
C2579       C  0.89703841  0.01639641  0.25443845    -0.12400
C2580       C  0.89156578  0.01241899  0.27429916     0.01100
C2581       C  0.87976982  0.96888091  0.23030953     0.40500
C2582       C  0.89637650  0.02701783  0.28922106     0.37100
C2583       C  0.89936932  0.95657050  0.29733098     0.36800
C2584       C  0.85263754  0.00792947  0.34511043     0.37600
N2585       N  0.87646169  0.95603677  0.21939533    -0.43200
N2586       N  0.90021768  0.03872224  0.30118848    -0.43700
N2587       N  0.84231956  0.01825973  0.35409213    -0.41000
N2588       N  0.90829834  0.94532593  0.28795965    -0.42500
H2589       H  0.89235350  0.95201298  0.33548373     0.13700
H2590       H  0.86093001  0.01316111  0.30719420     0.10200
H2591       H  0.87048563  0.96702469  0.26788467     0.11200
H2592       H  0.90367500  0.03068157  0.25123999     0.17100
C2593       C  0.14828117  0.27042182  0.97744987    -0.01200
C2594       C  0.13420617  0.28507866  0.97182117     0.07400
C2595       C  0.11433229  0.27960938  0.97070106    -0.07100
C2596       C  0.10828281  0.25989602  0.97371407     0.04900
C2597       C  0.12241758  0.24433009  0.97796315    -0.14400
C2598       C  0.14231488  0.25053903  0.98089252    -0.07700
C2599       C  0.13932786  0.30602008  0.96584884     0.05800
C2600       C  0.13453773  0.31248276  0.94637486    -0.08800
C2601       C  0.13644595  0.33255624  0.94045804     0.00800
C2602       C  0.14315281  0.34694152  0.95425876     0.00700
C2603       C  0.14837332  0.34027197  0.97367501    -0.12400
C2604       C  0.14651993  0.32014608  0.97951856     0.01100
C2605       C  0.13139181  0.33772941  0.92009754     0.40500
C2606       C  0.15148645  0.31453269  0.99980495     0.37100
C2607       C  0.16905561  0.27517568  0.97906962     0.36800
C2608       C  0.08736305  0.25647324  0.97077929     0.37600
N2609       N  0.12734163  0.34165031  0.90370970    -0.43200
N2610       N  0.15561985  0.31005226  0.01603590    -0.43700
N2611       N  0.07051912  0.25464060  0.96804537    -0.41000
N2612       N  0.18573748  0.27888260  0.98044324    -0.42500
H2613       H  0.15356354  0.24007422  0.98574914     0.13700
H2614       H  0.10336667  0.29090870  0.96676840     0.10200
H2615       H  0.12893342  0.30173871  0.93576090     0.11200
H2616       H  0.15375625  0.35086706  0.98452920     0.17100
C2617       C  0.00195077  0.20236904  0.14882462    -0.01200
C2618       C  0.01432619  0.18582172  0.15239135     0.07400
C2619       C  0.03048011  0.18291089  0.13967222    -0.07100
C2620       C  0.03395003  0.19558120  0.12306399     0.04900
C2621       C  0.02041348  0.21147649  0.11823094    -0.14400
C2622       C  0.00506216  0.21482592  0.13223002    -0.07700
C2623       C  0.01023212  0.17117021  0.16896567     0.05800
C2624       C  0.99357720  0.15881818  0.16764311    -0.08800
C2625       C  0.98942483  0.14420838  0.18230064     0.00800
C2626       C  0.00279031  0.14091938  0.19871958     0.00700
C2627       C  0.01826289  0.15510963  0.20085276    -0.12400
C2628       C  0.02222084  0.16969039  0.18617458     0.01100
C2629       C  0.97081846  0.13399204  0.17994389     0.40500
C2630       C  0.03877628  0.18293637  0.18905764     0.37100
C2631       C  0.98601491  0.20707365  0.16222631     0.36800
C2632       C  0.05209835  0.19196086  0.11247820     0.37600
N2633       N  0.95571463  0.12620862  0.17757744    -0.43200
N2634       N  0.05201454  0.19359843  0.19138847    -0.43700
N2635       N  0.06688831  0.18872226  0.10447946    -0.41000
N2636       N  0.97333133  0.21091795  0.17305327    -0.42500
H2637       H  0.99481092  0.22711133  0.12977902     0.13700
H2638       H  0.04051073  0.17055718  0.14277679     0.10200
H2639       H  0.98366330  0.16063047  0.15492157     0.11200
H2640       H  0.02832357  0.15383856  0.21349536     0.17100
C2641       C  0.06473185  0.23775676  0.06338481    -0.01200
C2642       C  0.06517915  0.22087462  0.05122783     0.07400
C2643       C  0.05260322  0.20490408  0.05581888    -0.07100
C2644       C  0.03914835  0.20583273  0.07173687     0.04900
C2645       C  0.03822783  0.22299493  0.08422282    -0.14400
C2646       C  0.05156235  0.23870909  0.07933490    -0.07700
C2647       C  0.07766565  0.22040870  0.03290516     0.05800
C2648       C  0.09815826  0.22322157  0.03452428    -0.08800
C2649       C  0.11020122  0.22441596  0.01759171     0.00800
C2650       C  0.10206548  0.22164143  0.99804187     0.00700
C2651       C  0.08117987  0.21939946  0.99681720    -0.12400
C2652       C  0.06917455  0.21885521  0.01376908     0.01100
C2653       C  0.13102071  0.22796639  0.02112407     0.40500
C2654       C  0.04794818  0.21779621  0.01102053     0.37100
C2655       C  0.07653752  0.25515696  0.05881956     0.36800
C2656       C  0.02619586  0.18893466  0.07437534     0.37600
N2657       N  0.14763128  0.23077614  0.02441143    -0.43200
N2658       N  0.03094230  0.21704284  0.00884642    -0.43700
N2659       N  0.01604392  0.17518624  0.07626404    -0.41000
N2660       N  0.08601717  0.26903227  0.05510117    -0.42500
H2661       H  0.05093055  0.25292589  0.08654721     0.13700
H2662       H  0.05289158  0.19179479  0.04648963     0.10200
H2663       H  0.10479001  0.22479704  0.04921291     0.11200
H2664       H  0.07359004  0.21892232  0.98267687     0.17100
C2665       C  0.04787830  0.31847100  0.11505465    -0.01200
C2666       C  0.03197298  0.30929231  0.12513485     0.07400
C2667       C  0.02057413  0.32075941  0.13814612    -0.07100
C2668       C  0.02478727  0.34099198  0.14127242     0.04900
C2669       C  0.04097104  0.35020487  0.13140212    -0.14400
C2670       C  0.05229519  0.33861682  0.11832307    -0.07700
C2671       C  0.02720861  0.28777403  0.12209754     0.05800
C2672       C  0.04154878  0.27331545  0.12680412    -0.08800
C2673       C  0.03919957  0.25338826  0.12112944     0.00800
C2674       C  0.02237365  0.24751305  0.10950182     0.00700
C2675       C  0.00672914  0.26164449  0.10783047    -0.12400
C2676       C  0.00916052  0.28155237  0.11359545     0.01100
C2677       C  0.05557674  0.24011941  0.12561578     0.40500
C2678       C  0.99316889  0.29548144  0.10982682     0.37100
C2679       C  0.05962980  0.30757660  0.10090505     0.36800
C2680       C  0.01240760  0.35163900  0.15506260     0.37600
N2681       N  0.06922348  0.23018861  0.12924356    -0.43200
N2682       N  0.98030944  0.30662671  0.10690811    -0.43700
N2683       N  0.00242034  0.36011477  0.16610269    -0.41000
N2684       N  0.06896077  0.29874012  0.08958214    -0.42500
H2685       H  0.06467165  0.34530156  0.11054703     0.13700
H2686       H  0.00840087  0.31381212  0.14603143     0.10200
H2687       H  0.05512283  0.27784355  0.13422947     0.11200
H2688       H  0.99255835  0.25755753  0.10151800     0.17100
C2689       C  0.94304310  0.20339679  0.03673010    -0.01200
C2690       C  0.94811566  0.21898471  0.04964876     0.07400
C2691       C  0.93678840  0.23631606  0.04905267    -0.07100
C2692       C  0.92190825  0.23948919  0.03471785     0.04900
C2693       C  0.91631191  0.22394052  0.02105596    -0.14400
C2694       C  0.92719684  0.20579083  0.02305717    -0.07700
C2695       C  0.96672853  0.21931031  0.06189049     0.05800
C2696       C  0.98100415  0.23367292  0.05723410    -0.08800
C2697       C  0.99788994  0.23641555  0.06917863     0.00800
C2698       C  0.00138333  0.22424634  0.08656703     0.00700
C2699       C  0.98696295  0.20927487  0.09053198    -0.12400
C2700       C  0.96970836  0.20720761  0.07886419     0.01100
C2701       C  0.01081323  0.25249367  0.06319414     0.40500
C2702       C  0.95485456  0.19308878  0.08511842     0.37100
C2703       C  0.95469048  0.18532803  0.03635083     0.36800
C2704       C  0.91638580  0.26020910  0.03321791     0.37600
N2705       N  0.02067017  0.26566183  0.05811419    -0.43200
N2706       N  0.94286760  0.18190467  0.09024551    -0.43700
N2707       N  0.91377295  0.27726129  0.03269352    -0.41000
N2708       N  0.96411561  0.17088155  0.03610997    -0.42500
H2709       H  0.92400685  0.19368041  0.01295923     0.13700
H2710       H  0.94101681  0.24840639  0.05887206     0.10200
H2711       H  0.97864438  0.24324991  0.04426140     0.11200
H2712       H  0.98892462  0.19861809  0.10255966     0.17100
C2713       C  0.86988598  0.26888146  0.02330222    -0.01200
C2714       C  0.87499723  0.28546860  0.01134038     0.07400
C2715       C  0.88522296  0.28194483  0.99357362    -0.07100
C2716       C  0.89216447  0.26280435  0.98865413     0.04900
C2717       C  0.89041131  0.24663901  0.00265933    -0.14400
C2718       C  0.87740536  0.24987975  0.01888709    -0.07700
C2719       C  0.87180422  0.30654899  0.01807253     0.05800
C2720       C  0.87961616  0.31245136  0.03661411    -0.08800
C2721       C  0.87830234  0.33226208  0.04308526     0.00800
C2722       C  0.86886631  0.34692466  0.03094252     0.00700
C2723       C  0.86088861  0.34094183  0.01243208    -0.12400
C2724       C  0.86227426  0.32109846  0.00598130     0.01100
C2725       C  0.88659278  0.33687566  0.06239886     0.40500
C2726       C  0.85320897  0.31589919  0.98717542     0.37100
C2727       C  0.85799846  0.27115618  0.04093982     0.36800
C2728       C  0.90006216  0.26087646  0.96884607     0.37600
N2729       N  0.89324729  0.34050240  0.07789792    -0.43200
N2730       N  0.84595988  0.31166477  0.97211224    -0.43700
N2731       N  0.90603202  0.25986000  0.95274476    -0.41000
N2732       N  0.84853123  0.27298463  0.05511982    -0.42500
H2733       H  0.87453091  0.23780836  0.02933443     0.13700
H2734       H  0.88842350  0.29441186  0.98369013     0.10200
H2735       H  0.88694452  0.30152796  0.04616187     0.11200
H2736       H  0.85332990  0.35177756  0.00292999     0.17100
C2737       C  0.05386617  0.20674180  0.89829075    -0.01200
C2738       C  0.05804500  0.21641529  0.91624964     0.07400
C2739       C  0.04456364  0.23042092  0.92336017    -0.07100
C2740       C  0.02640171  0.23400153  0.91372218     0.04900
C2741       C  0.02080244  0.22286152  0.89647508    -0.14400
C2742       C  0.03573980  0.21027483  0.88840465    -0.07700
C2743       C  0.07640143  0.21273896  0.92811607     0.05800
C2744       C  0.09230814  0.22575769  0.92583378    -0.08800
C2745       C  0.10709695  0.22695041  0.94055798     0.00800
C2746       C  0.10502850  0.21613777  0.95897279     0.00700
C2747       C  0.09199661  0.19967749  0.95841039    -0.12400
C2748       C  0.07708883  0.19852500  0.94370353     0.01100
C2749       C  0.12408952  0.23906747  0.93579211     0.40500
C2750       C  0.06166725  0.18382400  0.94583026     0.37100
C2751       C  0.06795301  0.19306537  0.88978648     0.36800
C2752       C  0.01361287  0.24847497  0.92295158     0.37600
N2753       N  0.13762437  0.24873808  0.93157618    -0.43200
N2754       N  0.04923516  0.17210253  0.94748780    -0.43700
N2755       N  0.00381683  0.26013815  0.93084516    -0.41000
N2756       N  0.07926325  0.18211045  0.88298167    -0.42500
H2757       H  0.03368250  0.20297274  0.87428612     0.13700
H2758       H  0.04812591  0.23838126  0.93691029     0.10200
H2759       H  0.09269577  0.23566185  0.91293759     0.11200
H2760       H  0.09154253  0.18931792  0.97085387     0.17100
C2761       C  0.92554643  0.20238300  0.95475933    -0.01200
C2762       C  0.94177659  0.21482308  0.95106784     0.07400
C2763       C  0.94544349  0.23052260  0.96407692    -0.07100
C2764       C  0.93309234  0.23440949  0.98031676     0.04900
C2765       C  0.91573590  0.22264884  0.98390223    -0.14400
C2766       C  0.91326786  0.20589646  0.97119358    -0.07700
C2767       C  0.95559969  0.21179936  0.93408246     0.05800
C2768       C  0.94904003  0.21509508  0.91443034    -0.08800
C2769       C  0.96260891  0.21687853  0.89867220     0.00800
C2770       C  0.98345032  0.21656348  0.90268587     0.00700
C2771       C  0.98924282  0.20911270  0.92176165    -0.12400
C2772       C  0.97576433  0.20755617  0.93744513     0.01100
C2773       C  0.95458754  0.22150832  0.87913531     0.40500
C2774       C  0.98310828  0.20224350  0.95710413     0.37100
C2775       C  0.92157372  0.18545765  0.94223666     0.36800
C2776       C  0.93895046  0.25115574  0.99227494     0.37600
N2777       N  0.94769710  0.22533887  0.86369784    -0.43200
N2778       N  0.98899503  0.19809351  0.97287555    -0.43700
N2779       N  0.94474265  0.26488977  0.00080400    -0.41000
N2780       N  0.91836216  0.17193774  0.93214695    -0.42500
H2781       H  0.90206681  0.19483001  0.97400747     0.13700
H2782       H  0.95817552  0.24000472  0.96139781     0.10200
H2783       H  0.93337447  0.21753886  0.91156638     0.11200
H2784       H  0.00445736  0.20519842  0.92506468     0.17100
C2785       C  0.97734042  0.27862775  0.88785419    -0.01200
C2786       C  0.98970701  0.28928493  0.87490144     0.07400
C2787       C  0.00581947  0.27927475  0.86642186    -0.07100
C2788       C  0.00914000  0.25869192  0.86998777     0.04900
C2789       C  0.99583093  0.24722607  0.88202513    -0.14400
C2790       C  0.98058405  0.25831767  0.89147048    -0.07700
C2791       C  0.98568915  0.31084858  0.87037568     0.05800
C2792       C  0.99793257  0.32561723  0.87854619    -0.08800
C2793       C  0.99311002  0.34601279  0.87645530     0.00800
C2794       C  0.97553641  0.35193828  0.86632639     0.00700
C2795       C  0.96348412  0.33709871  0.85796668    -0.12400
C2796       C  0.96853879  0.31681743  0.85965295     0.01100
C2797       C  0.00599471  0.36049981  0.88553741     0.40500
C2798       C  0.95603813  0.30230219  0.85003721     0.37100
C2799       C  0.96146783  0.28843776  0.89834704     0.36800
C2800       C  0.02618983  0.24982327  0.86064003     0.37600
N2801       N  0.01630050  0.37213625  0.89283522    -0.43200
N2802       N  0.94614466  0.29059945  0.84228597    -0.43700
N2803       N  0.03982993  0.24289951  0.85293853    -0.41000
N2804       N  0.94874773  0.29623611  0.90675524    -0.42500
H2805       H  0.97144254  0.25186040  0.90286152     0.13700
H2806       H  0.01574458  0.28752936  0.85677560     0.10200
H2807       H  0.01102964  0.32117870  0.88698100     0.11200
H2808       H  0.95024148  0.34138656  0.84968190     0.17100
C2809       C  0.18370427  0.14780442  0.97476707    -0.01200
C2810       C  0.18148152  0.16305444  0.98871078     0.07400
C2811       C  0.19352972  0.16268543  0.00586175    -0.07100
C2812       C  0.20829829  0.14793580  0.00876701     0.04900
C2813       C  0.21184948  0.13319320  0.99395351    -0.14400
C2814       C  0.19829048  0.13314617  0.97757648    -0.07700
C2815       C  0.16530894  0.17821791  0.98638729     0.05800
C2816       C  0.14778637  0.17536401  0.99688060    -0.08800
C2817       C  0.13144879  0.18816768  0.99423725     0.00800
C2818       C  0.13275308  0.20565187  0.98167244     0.00700
C2819       C  0.14986014  0.20688307  0.96961720    -0.12400
C2820       C  0.16613918  0.19389739  0.97229016     0.01100
C2821       C  0.11339876  0.18138068  0.00349430     0.40500
C2822       C  0.18372308  0.19710405  0.96059754     0.37100
C2823       C  0.17041844  0.14624326  0.95784185     0.36800
C2824       C  0.21953058  0.14853337  0.02716936     0.37600
N2825       N  0.09913382  0.17549772  0.01096794    -0.43200
N2826       N  0.19789558  0.19969699  0.95134173    -0.43700
N2827       N  0.22838169  0.14924249  0.04200001    -0.41000
N2828       N  0.15974802  0.14490384  0.94432968    -0.42500
H2829       H  0.19804932  0.12116093  0.96701215     0.13700
H2830       H  0.19128297  0.17392533  0.01713943     0.10200
H2831       H  0.14659184  0.16243144  0.00667230     0.11200
H2832       H  0.15091476  0.21849989  0.95839405     0.17100
C2833       C  0.28441120  0.11182519  0.00483445    -0.01200
C2834       C  0.29065757  0.13150728  0.00761574     0.07400
C2835       C  0.27745316  0.14712345  0.00298000    -0.07100
C2836       C  0.25764233  0.14334674  0.99724304     0.04900
C2837       C  0.25033780  0.12335234  0.99720977    -0.14400
C2838       C  0.26486554  0.10798129  0.99911784    -0.07700
C2839       C  0.31069845  0.13562842  0.01613213     0.05800
C2840       C  0.32734039  0.13478126  0.00378661    -0.08800
C2841       C  0.34661327  0.13638904  0.01171376     0.00800
C2842       C  0.34956938  0.13863778  0.03254442     0.00700
C2843       C  0.33276086  0.13939846  0.04483749    -0.12400
C2844       C  0.31352099  0.13803321  0.03682091     0.01100
C2845       C  0.36301120  0.13520002  0.99808889     0.40500
C2846       C  0.29681182  0.13887836  0.05010843     0.37100
C2847       C  0.29742806  0.09518657  0.00931062     0.36800
C2848       C  0.24620560  0.16036271  0.99051534     0.37600
N2849       N  0.37611854  0.13425914  0.98711355    -0.43200
N2850       N  0.28335203  0.13959156  0.06066303    -0.43700
N2851       N  0.23751783  0.17428145  0.98490602    -0.41000
N2852       N  0.30788121  0.08193030  0.01308053    -0.42500
H2853       H  0.26041356  0.09250608  0.99828790     0.13700
H2854       H  0.28263404  0.16237089  0.00400898     0.10200
H2855       H  0.32525235  0.13253931  0.98791208     0.11200
H2856       H  0.33459844  0.14140587  0.06077054     0.17100
C2857       C  0.16530065  0.02565016  0.17691440    -0.01200
C2858       C  0.16186979  0.01684597  0.15806499     0.07400
C2859       C  0.14239457  0.01091306  0.15368846    -0.07100
C2860       C  0.12677444  0.01382968  0.16707426     0.04900
C2861       C  0.13051481  0.02019527  0.18703309    -0.14400
C2862       C  0.15012472  0.02643007  0.19126318    -0.07700
C2863       C  0.17813037  0.01334249  0.14290416     0.05800
C2864       C  0.19687094  0.00639956  0.14918308    -0.08800
C2865       C  0.21259202  0.00350324  0.13576333     0.00800
C2866       C  0.20917930  0.00433052  0.11461232     0.00700
C2867       C  0.18995469  0.01084477  0.10857562    -0.12400
C2868       C  0.17523124  0.01637590  0.12217205     0.01100
C2869       C  0.23189459  0.00188080  0.14502022     0.40500
C2870       C  0.15786805  0.02645734  0.11428044     0.37100
C2871       C  0.18384913  0.03526790  0.18156981     0.36800
C2872       C  0.10712009  0.00925477  0.15979290     0.37600
N2873       N  0.24712694  0.00106218  0.15306497    -0.43200
N2874       N  0.14407891  0.03471682  0.10791289    -0.43700
N2875       N  0.09155798  0.00541082  0.15360079    -0.41000
N2876       N  0.19863586  0.04315531  0.18524235    -0.42500
H2877       H  0.15363943  0.03298443  0.20551555     0.13700
H2878       H  0.13916475  0.00388242  0.13956603     0.10200
H2879       H  0.19962139  0.00388971  0.16495858     0.11200
H2880       H  0.18656694  0.01247799  0.09281324     0.17100
C2881       C  0.21420939  0.03872485  0.05294724    -0.01200
C2882       C  0.21876121  0.05748841  0.06100097     0.07400
C2883       C  0.22403242  0.05834271  0.08126791    -0.07100
C2884       C  0.22613949  0.04096417  0.09306281     0.04900
C2885       C  0.22310988  0.02168019  0.08470669    -0.14400
C2886       C  0.21593108  0.02143616  0.06470413    -0.07700
C2887       C  0.21917775  0.07598159  0.04815937     0.05800
C2888       C  0.20294994  0.08090723  0.03576212    -0.08800
C2889       C  0.20471160  0.09490346  0.02007243     0.00800
C2890       C  0.22305878  0.10492301  0.01677601     0.00700
C2891       C  0.23729152  0.10309179  0.03243633    -0.12400
C2892       C  0.23622805  0.08794354  0.04688639     0.01100
C2893       C  0.18805325  0.09680709  0.00655329     0.40500
C2894       C  0.25373868  0.08384377  0.05881663     0.37100
C2895       C  0.20791033  0.03655203  0.03244523     0.36800
C2896       C  0.23180942  0.04364320  0.11366324     0.37600
N2897       N  0.17449355  0.09788402  0.99591377    -0.43200
N2898       N  0.26787201  0.08044808  0.06815848    -0.43700
N2899       N  0.23643264  0.04627064  0.13007949    -0.41000
N2900       N  0.20258955  0.03478769  0.01611818    -0.42500
H2901       H  0.21113044  0.00779832  0.05779371     0.13700
H2902       H  0.22680951  0.07275034  0.08790774     0.10200
H2903       H  0.18923930  0.07269093  0.03739801     0.11200
H2904       H  0.25020279  0.11253672  0.03297919     0.17100
C2905       C  0.28281989  0.00582154  0.10217850    -0.01200
C2906       C  0.28816669  0.98739164  0.11088397     0.07400
C2907       C  0.27311213  0.97440930  0.11684526    -0.07100
C2908       C  0.25299459  0.97926605  0.11398352     0.04900
C2909       C  0.24709136  0.99794945  0.10507914    -0.14400
C2910       C  0.26277209  0.01083954  0.09926243    -0.07700
C2911       C  0.30937019  0.98146317  0.11413537     0.05800
C2912       C  0.32083302  0.99196575  0.12797397    -0.08800
C2913       C  0.34054951  0.98650948  0.13215095     0.00800
C2914       C  0.34930728  0.96992764  0.12250077     0.00700
C2915       C  0.33781385  0.95959230  0.10839887    -0.12400
C2916       C  0.31814685  0.96535196  0.10401676     0.01100
C2917       C  0.35108076  0.99796914  0.14692074     0.40500
C2918       C  0.30745428  0.95499059  0.08856883     0.37100
C2919       C  0.29773765  0.01940986  0.09491515     0.36800
C2920       C  0.23884944  0.96434854  0.12015535     0.37600
N2921       N  0.35943574  0.00724320  0.15874607    -0.43200
N2922       N  0.29892499  0.94684479  0.07604584    -0.43700
N2923       N  0.22787429  0.95218846  0.12538016    -0.41000
N2924       N  0.30965392  0.03028718  0.08901086    -0.42500
H2925       H  0.25990747  0.02449096  0.09112448     0.13700
H2926       H  0.27714132  0.96019628  0.12365110     0.10200
H2927       H  0.31421728  0.00438920  0.13577301     0.11200
H2928       H  0.34425405  0.94708676  0.10060447     0.17100
C2929       C  0.24232118  0.04521678  0.92868233    -0.01200
C2930       C  0.22744058  0.05978962  0.92905969     0.07400
C2931       C  0.21302490  0.06009941  0.91381690    -0.07100
C2932       C  0.21256899  0.04533246  0.89891993     0.04900
C2933       C  0.22630544  0.02905809  0.89979004    -0.14400
C2934       C  0.24124536  0.02995449  0.91490510    -0.07700
C2935       C  0.22654316  0.07406932  0.94588479     0.05800
C2936       C  0.23036449  0.09427454  0.94245581    -0.08800
C2937       C  0.23147944  0.10778415  0.95830602     0.00800
C2938       C  0.22756434  0.10144002  0.97836963     0.00700
C2939       C  0.22491718  0.08067717  0.98141965    -0.12400
C2940       C  0.22404350  0.06729819  0.96565221     0.01100
C2941       C  0.23621186  0.12815700  0.95312219     0.40500
C2942       C  0.22135709  0.04642729  0.97043616     0.37100
C2943       C  0.25892331  0.04550635  0.94245228     0.36800
C2944       C  0.19810504  0.04806773  0.88320476     0.37600
N2945       N  0.23979865  0.14434495  0.94825984    -0.43200
N2946       N  0.21960615  0.02974017  0.97459834    -0.43700
N2947       N  0.18644407  0.05090902  0.87072596    -0.41000
N2948       N  0.27223723  0.04583124  0.95342731    -0.42500
H2949       H  0.25214088  0.01815316  0.91639873     0.13700
H2950       H  0.20195910  0.07187622  0.91366440     0.10200
H2951       H  0.23306932  0.09942183  0.92733214     0.11200
H2952       H  0.22428928  0.07422196  0.99618446     0.17100
C2953       C  0.31664144  0.04842333  0.88709795    -0.01200
C2954       C  0.31153077  0.03144034  0.87593623     0.07400
C2955       C  0.32630517  0.02165983  0.86519619    -0.07100
C2956       C  0.34590277  0.02860274  0.86522157     0.04900
C2957       C  0.35122645  0.04556941  0.87658923    -0.14400
C2958       C  0.33629041  0.05526889  0.88739800    -0.07700
C2959       C  0.29077045  0.02389782  0.87512632     0.05800
C2960       C  0.27605923  0.03571640  0.86615395    -0.08800
C2961       C  0.25595716  0.03075182  0.86758112     0.00800
C2962       C  0.24980492  0.01294054  0.87782639     0.00700
C2963       C  0.26530673  0.00032352  0.88521147    -0.12400
C2964       C  0.28532756  0.00580430  0.88425030     0.01100
C2965       C  0.24211720  0.04528215  0.85951125     0.40500
C2966       C  0.29985862  0.99355703  0.89460171     0.37100
C2967       C  0.30193272  0.05899518  0.89845512     0.36800
C2968       C  0.35982709  0.01851982  0.85253292     0.37600
N2969       N  0.23141370  0.05702771  0.85259511    -0.43200
N2970       N  0.31145334  0.98384481  0.90306644    -0.43700
N2971       N  0.37081899  0.01043597  0.84217984    -0.41000
N2972       N  0.29005960  0.06745037  0.90745201    -0.42500
H2973       H  0.33990958  0.06836008  0.89602628     0.13700
H2974       H  0.32238676  0.00876836  0.85637978     0.10200
H2975       H  0.28027985  0.04958351  0.85888062     0.11200
H2976       H  0.26222195  0.98721840  0.89406157     0.17100
C2977       C  0.21534055  0.94423011  0.01890620    -0.01200
C2978       C  0.21736913  0.93709266  0.03855288     0.07400
C2979       C  0.22005957  0.91655636  0.04174961    -0.07100
C2980       C  0.22291892  0.90355708  0.02556722     0.04900
C2981       C  0.22448406  0.91130286  0.00566810    -0.14400
C2982       C  0.21891980  0.93162646  0.00296637    -0.07700
C2983       C  0.21955385  0.95155379  0.05515736     0.05800
C2984       C  0.20518906  0.95328372  0.07002694    -0.08800
C2985       C  0.20609861  0.96860224  0.08435029     0.00800
C2986       C  0.22144442  0.98332776  0.08340125     0.00700
C2987       C  0.23594151  0.98064167  0.06839810    -0.12400
C2988       C  0.23545193  0.96496344  0.05503570     0.01100
C2989       C  0.19134812  0.96774406  0.09974728     0.40500
C2990       C  0.25157527  0.96306193  0.04111047     0.37100
C2991       C  0.21005797  0.96478806  0.01470079     0.36800
C2992       C  0.22580889  0.88264115  0.03018152     0.37600
N2993       N  0.17936799  0.96641572  0.11194593    -0.43200
N2994       N  0.26452016  0.96155030  0.03001816    -0.43700
N2995       N  0.22829666  0.86596658  0.03412877    -0.41000
N2996       N  0.20585025  0.98123862  0.01134361    -0.42500
H2997       H  0.21681351  0.93815759  0.98833014     0.13700
H2998       H  0.22094378  0.91080700  0.05691101     0.10200
H2999       H  0.19310114  0.94267473  0.07034701     0.11200
H3000       H  0.24796704  0.99120544  0.06695247     0.17100
C3001       C  0.21546814  0.92014227  0.93437187    -0.01200
C3002       C  0.22849154  0.93638255  0.93296203     0.07400
C3003       C  0.24303281  0.93870152  0.94757981    -0.07100
C3004       C  0.24358396  0.92662108  0.96459673     0.04900
C3005       C  0.22933193  0.91100407  0.96740849    -0.14400
C3006       C  0.21638618  0.90726259  0.95108546    -0.07700
C3007       C  0.22496151  0.95371813  0.91944025     0.05800
C3008       C  0.21825223  0.97111111  0.92833244    -0.08800
C3009       C  0.21782884  0.98928357  0.91809197     0.00800
C3010       C  0.22491944  0.99068835  0.89794334     0.00700
C3011       C  0.22915924  0.97234160  0.88843704    -0.12400
C3012       C  0.22990899  0.95415653  0.89913457     0.01100
C3013       C  0.20844296  0.00519779  0.92891346     0.40500
C3014       C  0.23686081  0.93643998  0.88935679     0.37100
C3015       C  0.20046623  0.91701165  0.91930744     0.36800
C3016       C  0.25811905  0.93225417  0.97940366     0.37600
N3017       N  0.20030586  0.01747036  0.93770977    -0.43200
N3018       N  0.24247649  0.92219825  0.88157724    -0.43700
N3019       N  0.26994194  0.93764110  0.99069855    -0.41000
N3020       N  0.18846525  0.91456175  0.90716856    -0.42500
H3021       H  0.20645110  0.89467194  0.95135441     0.13700
H3022       H  0.25315943  0.95120723  0.94638342     0.10200
H3023       H  0.21361287  0.97048049  0.94381211     0.11200
H3024       H  0.23346780  0.97249995  0.87289291     0.17100
C3025       C  0.27546254  0.87630949  0.96269645    -0.01200
C3026       C  0.29105827  0.88288834  0.97488674     0.07400
C3027       C  0.28665107  0.88986470  0.99389595    -0.07100
C3028       C  0.26701944  0.89271299  0.00014476     0.04900
C3029       C  0.25077206  0.88844573  0.98686278    -0.14400
C3030       C  0.25582333  0.87841273  0.96898415    -0.07700
C3031       C  0.31198344  0.88352676  0.96786186     0.05800
C3032       C  0.31699691  0.89605308  0.95170969    -0.08800
C3033       C  0.33661359  0.89726314  0.94487564     0.00800
C3034       C  0.35166945  0.88574828  0.95429475     0.00700
C3035       C  0.34661015  0.87368603  0.97079236    -0.12400
C3036       C  0.32708814  0.87248756  0.97756254     0.01100
C3037       C  0.34090537  0.91084644  0.92863984     0.40500
C3038       C  0.32283169  0.85934053  0.99416229     0.37100
C3039       C  0.27920336  0.86824391  0.94320057     0.36800
C3040       C  0.26544495  0.90194881  0.01936368     0.37600
N3041       N  0.34430168  0.92185303  0.91570666    -0.43200
N3042       N  0.31943052  0.84883123  0.00749245    -0.43700
N3043       N  0.26560574  0.90937576  0.03487427    -0.41000
N3044       N  0.28225625  0.86191846  0.92752781    -0.42500
H3045       H  0.24414830  0.87422557  0.95865895     0.13700
H3046       H  0.29879530  0.89443013  0.00351361     0.10200
H3047       H  0.30553906  0.90502447  0.94451529     0.11200
H3048       H  0.35788035  0.86463807  0.97818769     0.17100
C3049       C  0.87632279  0.05935978  0.69135311    -0.01200
C3050       C  0.88534809  0.04102151  0.69664514     0.07400
C3051       C  0.89205713  0.02846018  0.68148939    -0.07100
C3052       C  0.89008293  0.03405979  0.66128411     0.04900
C3053       C  0.88146493  0.05268454  0.65600968    -0.14400
C3054       C  0.87468466  0.06511693  0.67126491    -0.07700
C3055       C  0.88966699  0.03589118  0.71792834     0.05800
C3056       C  0.87986933  0.02016539  0.72754277    -0.08800
C3057       C  0.88327151  0.01581308  0.74793631     0.00800
C3058       C  0.89602759  0.02808341  0.75970998     0.00700
C3059       C  0.90699593  0.04267862  0.74887919    -0.12400
C3060       C  0.90382698  0.04668621  0.72864986     0.01100
C3061       C  0.87302699  0.99879739  0.75613579     0.40500
C3062       C  0.91608253  0.06146065  0.71892076     0.37100
C3063       C  0.86836184  0.07238419  0.70634578     0.36800
C3064       C  0.89769323  0.02077041  0.64636314     0.37600
N3065       N  0.86431122  0.98517228  0.76205594    -0.43200
N3066       N  0.92595600  0.07320827  0.71111829    -0.43700
N3067       N  0.90385611  0.01009420  0.63444717    -0.41000
N3068       N  0.86192287  0.08274828  0.71838591    -0.42500
H3069       H  0.86757760  0.07920584  0.66746794     0.13700
H3070       H  0.89924638  0.01446718  0.68547953     0.10200
H3071       H  0.86945789  0.01126457  0.71907801     0.11200
H3072       H  0.91919840  0.05057281  0.75552026     0.17100
C3073       C  0.00106651  0.17461742  0.85815442    -0.01200
C3074       C  0.00275220  0.18060288  0.83801244     0.07400
C3075       C  0.99863322  0.20066498  0.83325131    -0.07100
C3076       C  0.99495490  0.21491041  0.84815616     0.04900
C3077       C  0.99740944  0.20967446  0.86878600    -0.14400
C3078       C  0.99893997  0.18892893  0.87309877    -0.07700
C3079       C  0.00812006  0.16609294  0.82182996     0.05800
C3080       C  0.99628287  0.16478842  0.80463847    -0.08800
C3081       C  0.00013804  0.15067785  0.78973227     0.00800
C3082       C  0.01601088  0.13653163  0.79186995     0.00700
C3083       C  0.02838887  0.13881953  0.80890612    -0.12400
C3084       C  0.02497717  0.15359492  0.82322935     0.01100
C3085       C  0.98708809  0.15129389  0.77258914     0.40500
C3086       C  0.03930472  0.15578743  0.83916560     0.37100
C3087       C  0.00100273  0.15379913  0.86392901     0.36800
C3088       C  0.98727643  0.23386787  0.84122329     0.37600
N3089       N  0.97654564  0.15280435  0.75895617    -0.43200
N3090       N  0.05077847  0.15757456  0.85193124    -0.43700
N3091       N  0.98083521  0.24878386  0.83513593    -0.41000
N3092       N  0.00081374  0.13712497  0.86856411    -0.42500
H3093       H  0.99939788  0.18382335  0.88848496     0.13700
H3094       H  0.99814183  0.20526675  0.81769857     0.10200
H3095       H  0.98359801  0.17466987  0.80297684     0.11200
H3096       H  0.04061505  0.12874427  0.81178852     0.17100
C3097       C  0.95078538  0.04835006  0.79824378    -0.01200
C3098       C  0.94667476  0.06861750  0.79448828     0.07400
C3099       C  0.92696539  0.07460335  0.79175576    -0.07100
C3100       C  0.91167341  0.06053024  0.79034029     0.04900
C3101       C  0.91618567  0.03965757  0.79046970    -0.14400
C3102       C  0.93554647  0.03428009  0.79707145    -0.07700
C3103       C  0.96284762  0.08324733  0.79101640     0.05800
C3104       C  0.96596394  0.09020037  0.77157536    -0.08800
C3105       C  0.98229372  0.10216344  0.76676306     0.00800
C3106       C  0.99691150  0.10668783  0.78169551     0.00700
C3107       C  0.99181923  0.10171525  0.80168606    -0.12400
C3108       C  0.97547135  0.08976054  0.80631036     0.01100
C3109       C  0.98216368  0.11009425  0.74666858     0.40500
C3110       C  0.97220657  0.08396335  0.82680895     0.37100
C3111       C  0.97081025  0.04139850  0.80176650     0.36800
C3112       C  0.89206340  0.06832328  0.78646039     0.37600
N3113       N  0.98143205  0.11633748  0.73050860    -0.43200
N3114       N  0.96960781  0.07923841  0.84322780    -0.43700
N3115       N  0.87669838  0.07550355  0.78344952    -0.41000
N3116       N  0.98686981  0.03584952  0.80450745    -0.42500
H3117       H  0.93941767  0.01893896  0.80036788     0.13700
H3118       H  0.92365616  0.09033503  0.78962428     0.10200
H3119       H  0.95554270  0.08602707  0.75993815     0.11200
H3120       H  0.00164497  0.10595660  0.81377537     0.17100
C3121       C  0.02763027  0.13174477  0.67803506    -0.01200
C3122       C  0.04069645  0.13319439  0.69446402     0.07400
C3123       C  0.06086536  0.13652921  0.69087579    -0.07100
C3124       C  0.06813020  0.13846421  0.67133155     0.04900
C3125       C  0.05505765  0.13711002  0.65471461    -0.14400
C3126       C  0.03480276  0.13378529  0.65848090    -0.07700
C3127       C  0.03387554  0.12990517  0.71540761     0.05800
C3128       C  0.03089501  0.11038044  0.72210793    -0.08800
C3129       C  0.02519580  0.10618848  0.74178141     0.00800
C3130       C  0.02197313  0.12192210  0.75576963     0.00700
C3131       C  0.02535009  0.14162201  0.74865347    -0.12400
C3132       C  0.03095435  0.14563493  0.72882184     0.01100
C3133       C  0.02231370  0.08537287  0.74672899     0.40500
C3134       C  0.03365122  0.16609779  0.72256002     0.37100
C3135       C  0.00672330  0.12844461  0.68092695     0.36800
C3136       C  0.08898536  0.14240039  0.66896189     0.37600
N3137       N  0.01998170  0.06860465  0.75020931    -0.43200
N3138       N  0.03569357  0.18253413  0.71757786    -0.43700
N3139       N  0.10571989  0.14557522  0.66716222    -0.41000
N3140       N  0.98995697  0.12583163  0.68323203    -0.42500
H3141       H  0.02442657  0.13290078  0.64609332     0.13700
H3142       H  0.07101808  0.13752107  0.70344853     0.10200
H3143       H  0.03318305  0.09821241  0.71182535     0.11200
H3144       H  0.02437338  0.15414356  0.75859088     0.17100
C3145       C  0.14938127  0.01365172  0.82177451    -0.01200
C3146       C  0.16866710  0.00620161  0.81832232     0.07400
C3147       C  0.17225378  0.99819982  0.79930289    -0.07100
C3148       C  0.15781003  0.99867523  0.78386013     0.04900
C3149       C  0.13798529  0.00508205  0.78781529    -0.14400
C3150       C  0.13429809  0.01097221  0.80768236    -0.07700
C3151       C  0.18445419  0.00599819  0.83468445     0.05800
C3152       C  0.17876548  0.00225562  0.85446813    -0.08800
C3153       C  0.19165778  0.00502188  0.87073868     0.00800
C3154       C  0.21220519  0.00922881  0.86780013     0.00700
C3155       C  0.21835071  0.00951510  0.84756068    -0.12400
C3156       C  0.20483779  0.00952310  0.83142092     0.01100
C3157       C  0.18232408  0.00399137  0.88996618     0.40500
C3158       C  0.21257642  0.01392436  0.81186792     0.37100
C3159       C  0.14459176  0.02536094  0.83908103     0.36800
C3160       C  0.16438263  0.99193348  0.76467168     0.37600
N3161       N  0.17320285  0.00323584  0.90448989    -0.43200
N3162       N  0.21897997  0.01747118  0.79627218    -0.43700
N3163       N  0.17036820  0.98661828  0.74948287    -0.41000
N3164       N  0.14068134  0.03488233  0.85280613    -0.42500
H3165       H  0.11945043  0.01517424  0.81196813     0.13700
H3166       H  0.18644785  0.99137128  0.79629343     0.10200
H3167       H  0.16367915  0.99771250  0.85746728     0.11200
H3168       H  0.23384059  0.01021124  0.84380999     0.17100
C3169       C  0.10121295  0.05788835  0.78834692    -0.01200
C3170       C  0.08131477  0.05793758  0.78190143     0.07400
C3171       C  0.07483067  0.04215542  0.77005799    -0.07100
C3172       C  0.08679430  0.02550781  0.76640704     0.04900
C3173       C  0.10652158  0.02423726  0.77436407    -0.14400
C3174       C  0.11372583  0.04178903  0.78366848    -0.07700
C3175       C  0.06671969  0.07412799  0.78661637     0.05800
C3176       C  0.07063563  0.09400859  0.78140284    -0.08800
C3177       C  0.05555793  0.10858625  0.78132832     0.00800
C3178       C  0.03538378  0.10323414  0.78509590     0.00700
C3179       C  0.03235669  0.08347306  0.79235500    -0.12400
C3180       C  0.04773432  0.06944552  0.79377559     0.01100
C3181       C  0.06130198  0.12870501  0.77619161     0.40500
C3182       C  0.04338328  0.04990388  0.80194860     0.37100
C3183       C  0.10890021  0.07350825  0.80083380     0.36800
C3184       C  0.07727962  0.00968656  0.75554975     0.37600
N3185       N  0.06621398  0.14477859  0.77225131    -0.43200
N3186       N  0.03991016  0.03431651  0.80859739    -0.43700
N3187       N  0.06867895  0.99746467  0.74707511    -0.41000
N3188       N  0.11508633  0.08588839  0.81100837    -0.42500
H3189       H  0.12907820  0.04290215  0.78818444     0.13700
H3190       H  0.05982815  0.04253268  0.76409505     0.10200
H3191       H  0.08532348  0.09803795  0.77638342     0.11200
H3192       H  0.01789832  0.07778566  0.79564763     0.17100
C3193       C  0.11634084  0.98517026  0.71855248    -0.01200
C3194       C  0.12985974  0.99719289  0.70832564     0.07400
C3195       C  0.13907072  0.01280446  0.71862065    -0.07100
C3196       C  0.13576815  0.01565460  0.73923768     0.04900
C3197       C  0.12367039  0.00211360  0.75033316    -0.14400
C3198       C  0.11320839  0.98787242  0.73882637    -0.07700
C3199       C  0.13427764  0.99284904  0.68703062     0.05800
C3200       C  0.12499472  0.00407910  0.67179983    -0.08800
C3201       C  0.12537683  0.99768449  0.65187321     0.00800
C3202       C  0.13486140  0.97953804  0.64699565     0.00700
C3203       C  0.14454891  0.96863222  0.66220395    -0.12400
C3204       C  0.14452637  0.97523795  0.68197876     0.01100
C3205       C  0.11495826  0.00937950  0.63690227     0.40500
C3206       C  0.15471943  0.96346750  0.69706475     0.37100
C3207       C  0.10511987  0.96994268  0.70838926     0.36800
C3208       C  0.14551023  0.03229994  0.74854964     0.37600
N3209       N  0.10656999  0.01868915  0.62487283    -0.43200
N3210       N  0.16286581  0.95413918  0.70924380    -0.43700
N3211       N  0.15355507  0.04566450  0.75574123    -0.41000
N3212       N  0.09618531  0.95775840  0.70022768    -0.42500
H3213       H  0.10172921  0.97880016  0.74515483     0.13700
H3214       H  0.14904452  0.02262012  0.71062104     0.10200
H3215       H  0.11672878  0.01738495  0.67560686     0.11200
H3216       H  0.15233079  0.95497204  0.65859899     0.17100
C3217       C  0.05928775  0.92300531  0.78167410    -0.01200
C3218       C  0.05979519  0.94406190  0.78281208     0.07400
C3219       C  0.04211597  0.95435881  0.77879294    -0.07100
C3220       C  0.02384052  0.94472630  0.77783769     0.04900
C3221       C  0.02268495  0.92353277  0.77985484    -0.14400
C3222       C  0.04106376  0.91324113  0.77857019    -0.07700
C3223       C  0.07801723  0.95635012  0.78694472     0.05800
C3224       C  0.09631935  0.95174431  0.77830203    -0.08800
C3225       C  0.11165256  0.96583829  0.77765575     0.00800
C3226       C  0.10731729  0.98621127  0.78195900     0.00700
C3227       C  0.09096461  0.98931540  0.79459870    -0.12400
C3228       C  0.07673070  0.97447377  0.79754550     0.01100
C3229       C  0.13026415  0.95916124  0.76963105     0.40500
C3230       C  0.06046700  0.97865412  0.81077093     0.37100
C3231       C  0.07653889  0.91078593  0.78567351     0.36800
C3232       C  0.00744769  0.95774250  0.77330859     0.37600
N3233       N  0.14468238  0.95262153  0.76310483    -0.43200
N3234       N  0.04738500  0.98201270  0.82128203    -0.43700
N3235       N  0.99508978  0.96923340  0.76979711    -0.41000
N3236       N  0.09027410  0.90087408  0.78900765    -0.42500
H3237       H  0.04106079  0.89710299  0.77779475     0.13700
H3238       H  0.04250444  0.97043271  0.77672541     0.10200
H3239       H  0.09846371  0.93774657  0.77076399     0.11200
H3240       H  0.08850480  0.00368824  0.80136086     0.17100
C3241       C  0.95113805  0.93503883  0.77200518    -0.01200
C3242       C  0.95108694  0.95083159  0.78552365     0.07400
C3243       C  0.96548623  0.95086784  0.80073883    -0.07100
C3244       C  0.98137667  0.93707092  0.80092952     0.04900
C3245       C  0.98363011  0.92332616  0.78497234    -0.14400
C3246       C  0.96669587  0.92113141  0.77236471    -0.07700
C3247       C  0.93692739  0.96794619  0.78333466     0.05800
C3248       C  0.91977118  0.96867180  0.79489523    -0.08800
C3249       C  0.90646323  0.98491414  0.79343911     0.00800
C3250       C  0.91155479  0.00236348  0.78208049     0.00700
C3251       C  0.92796291  0.00028522  0.76916603    -0.12400
C3252       C  0.93999198  0.98327610  0.76921071     0.01100
C3253       C  0.88709812  0.98152276  0.80163450     0.40500
C3254       C  0.95482695  0.98180492  0.75393641     0.37100
C3255       C  0.93560802  0.93312531  0.75722421     0.36800
C3256       C  0.99588375  0.93912633  0.81663539     0.37600
N3257       N  0.87144787  0.97818414  0.80770240    -0.43200
N3258       N  0.96610299  0.98089616  0.74106501    -0.43700
N3259       N  0.00696108  0.94174953  0.82958753    -0.41000
N3260       N  0.92316340  0.93164310  0.74536716    -0.42500
H3261       H  0.96568206  0.90891794  0.76200713     0.13700
H3262       H  0.96494784  0.96244806  0.81189307     0.10200
H3263       H  0.91629200  0.95600618  0.80442569     0.11200
H3264       H  0.93188146  0.01241125  0.75918066     0.17100
C3265       C  0.96552068  0.88198817  0.69467793    -0.01200
C3266       C  0.98589855  0.88293611  0.69944878     0.07400
C3267       C  0.99969261  0.88064059  0.68410594    -0.07100
C3268       C  0.99351747  0.87744095  0.66428469     0.04900
C3269       C  0.97304503  0.87622798  0.65942694    -0.14400
C3270       C  0.95928880  0.87857469  0.67492456    -0.07700
C3271       C  0.99283847  0.88928549  0.71966047     0.05800
C3272       C  0.99832723  0.87525548  0.73444379    -0.08800
C3273       C  0.00345486  0.88121774  0.75401409     0.00800
C3274       C  0.00191866  0.90170421  0.75948781     0.00700
C3275       C  0.99881144  0.91553470  0.74354031    -0.12400
C3276       C  0.99397449  0.90959757  0.72420763     0.01100
C3277       C  0.01202814  0.86614646  0.76696943     0.40500
C3278       C  0.98960997  0.92474602  0.70931189     0.37100
C3279       C  0.95074424  0.88500164  0.70981629     0.36800
C3280       C  0.00855762  0.87663899  0.64913472     0.37600
N3281       N  0.01920690  0.85389523  0.77698676    -0.43200
N3282       N  0.98611064  0.93682661  0.69732663    -0.43700
N3283       N  0.02067191  0.87619968  0.63702952    -0.41000
N3284       N  0.93897159  0.88751071  0.72199711    -0.42500
H3285       H  0.94356228  0.87771941  0.67163690     0.13700
H3286       H  0.01535563  0.88205617  0.68752337     0.10200
H3287       H  0.99878016  0.85960179  0.73062394     0.11200
H3288       H  0.99864645  0.93128721  0.74646708     0.17100
C3289       C  0.01918615  0.84458369  0.85876267    -0.01200
C3290       C  0.00739693  0.84342932  0.84115824     0.07400
C3291       C  0.99848928  0.82485247  0.83735812    -0.07100
C3292       C  0.99959826  0.80878950  0.85119481     0.04900
C3293       C  0.01191695  0.80984608  0.86865451    -0.14400
C3294       C  0.02298566  0.82756473  0.87055963    -0.07700
C3295       C  0.00534156  0.86089204  0.82638246     0.05800
C3296       C  0.02141871  0.87383700  0.82377250    -0.08800
C3297       C  0.01982053  0.89162108  0.81273605     0.00800
C3298       C  0.00400344  0.89449865  0.79859584     0.00700
C3299       C  0.98773738  0.88134847  0.80099681    -0.12400
C3300       C  0.98786827  0.86553062  0.81522308     0.01100
C3301       C  0.03326995  0.90699778  0.81918933     0.40500
C3302       C  0.96959129  0.85490688  0.81832188     0.37100
C3303       C  0.02646700  0.86327425  0.86642097     0.36800
C3304       C  0.98744341  0.79165620  0.84699271     0.37600
N3305       N  0.04422073  0.91882172  0.82514273    -0.43200
N3306       N  0.95485449  0.84650376  0.82079612    -0.43700
N3307       N  0.97764083  0.77802631  0.84335708    -0.41000
N3308       N  0.03227737  0.87815773  0.87275337    -0.42500
H3309       H  0.03418773  0.82900761  0.88191737     0.13700
H3310       H  0.99022804  0.82278957  0.82364406     0.10200
H3311       H  0.03533889  0.87078203  0.83132641     0.11200
H3312       H  0.97468332  0.88348015  0.79169652     0.17100
C3313       C  0.00561542  0.73630725  0.87574123    -0.01200
C3314       C  0.02306713  0.73161076  0.86526302     0.07400
C3315       C  0.03430636  0.74751536  0.85767066    -0.07100
C3316       C  0.02991227  0.76747440  0.86238846     0.04900
C3317       C  0.01398423  0.77213968  0.87553279    -0.14400
C3318       C  0.00091846  0.75626848  0.88010327    -0.07700
C3319       C  0.03015441  0.71038913  0.86264627     0.05800
C3320       C  0.01778354  0.69629033  0.85353108    -0.08800
C3321       C  0.02379203  0.67629542  0.85121639     0.00800
C3322       C  0.04285526  0.66982370  0.85783672     0.00700
C3323       C  0.05519136  0.68398989  0.86698388    -0.12400
C3324       C  0.04906538  0.70392502  0.86943231     0.01100
C3325       C  0.00987407  0.66286701  0.84201670     0.40500
C3326       C  0.06247672  0.71741049  0.87923661     0.37100
C3327       C  0.99283762  0.72084299  0.88337984     0.36800
C3328       C  0.04356249  0.78250334  0.85543031     0.37600
N3329       N  0.99862397  0.65215821  0.83469061    -0.43200
N3330       N  0.07333228  0.72822827  0.88695581    -0.43700
N3331       N  0.05460175  0.79445849  0.84987317    -0.41000
N3332       N  0.98258925  0.70845603  0.88951250    -0.42500
H3333       H  0.98734956  0.75901948  0.88805431     0.13700
H3334       H  0.04722077  0.74425804  0.84873626     0.10200
H3335       H  0.00329942  0.70094756  0.84808860     0.11200
H3336       H  0.06983742  0.67955731  0.87214806     0.17100
C3337       C  0.14894858  0.83678765  0.98033322    -0.01200
C3338       C  0.16509366  0.83712434  0.99374694     0.07400
C3339       C  0.16465596  0.82400667  0.01025727    -0.07100
C3340       C  0.14904297  0.81024172  0.01302769     0.04900
C3341       C  0.13343891  0.80857838  0.99861970    -0.14400
C3342       C  0.13338988  0.82331213  0.98318362    -0.07700
C3343       C  0.18167983  0.85197643  0.99141495     0.05800
C3344       C  0.17711075  0.87234054  0.98998868    -0.08800
C3345       C  0.19180755  0.88686819  0.98732741     0.00800
C3346       C  0.21237499  0.88154554  0.98699293     0.00700
C3347       C  0.21673696  0.86082358  0.98852549    -0.12400
C3348       C  0.20177778  0.84628575  0.99028324     0.01100
C3349       C  0.18482569  0.90713118  0.98478762     0.40500
C3350       C  0.20747645  0.82551384  0.99044036     0.37100
C3351       C  0.14788992  0.85009209  0.96323403     0.36800
C3352       C  0.14988857  0.79779709  0.03071349     0.37600
N3353       N  0.17870290  0.92315241  0.98251984    -0.43200
N3354       N  0.21210294  0.80887840  0.99041878    -0.43700
N3355       N  0.15098844  0.78785956  0.04490364    -0.41000
N3356       N  0.14691876  0.86077647  0.94958251    -0.42500
H3357       H  0.12094611  0.82501792  0.97312698     0.13700
H3358       H  0.17651935  0.82465909  0.02123245     0.10200
H3359       H  0.16173719  0.87700866  0.99088729     0.11200
H3360       H  0.23188208  0.85557806  0.98891521     0.17100
C3361       C  0.06688438  0.79773204  0.96910566    -0.01200
C3362       C  0.07374995  0.79737552  0.94938944     0.07400
C3363       C  0.09404805  0.79469963  0.94613391    -0.07100
C3364       C  0.10743751  0.79224161  0.96205436     0.04900
C3365       C  0.10110654  0.79473563  0.98217078    -0.14400
C3366       C  0.08032284  0.79645383  0.98503198    -0.07700
C3367       C  0.05971636  0.79739516  0.93210746     0.05800
C3368       C  0.04590791  0.81285282  0.92969379    -0.08800
C3369       C  0.03093143  0.81212966  0.91506145     0.00800
C3370       C  0.02997420  0.79595395  0.90116834     0.00700
C3371       C  0.04450527  0.78065338  0.90405097    -0.12400
C3372       C  0.05891923  0.78122704  0.91907680     0.01100
C3373       C  0.01649343  0.82811248  0.91554565     0.40500
C3374       C  0.07179686  0.76410847  0.92188817     0.37100
C3375       C  0.04594500  0.79795894  0.97347401     0.36800
C3376       C  0.12761241  0.78740244  0.95690809     0.37600
N3377       N  0.00527034  0.84118196  0.91618261    -0.43200
N3378       N  0.08224559  0.75058267  0.92445745    -0.43700
N3379       N  0.14361859  0.78370773  0.95207905    -0.41000
N3380       N  0.02918085  0.79803655  0.97695763    -0.42500
H3381       H  0.07396772  0.79550347  0.99971418     0.13700
H3382       H  0.09938374  0.79375671  0.93095124     0.10200
H3383       H  0.04636166  0.82528084  0.93992036     0.11200
H3384       H  0.04420499  0.76696219  0.89590090     0.17100
C3385       C  0.10827433  0.73604059  0.00514681    -0.01200
C3386       C  0.12736312  0.72820578  0.00779178     0.07400
C3387       C  0.14363865  0.74072386  0.00441310    -0.07100
C3388       C  0.14109099  0.76125343  0.99995195     0.04900
C3389       C  0.12175131  0.77005324  0.00043228    -0.14400
C3390       C  0.10564191  0.75643541  0.00171412    -0.07700
C3391       C  0.13018549  0.70713723  0.01470910     0.05800
C3392       C  0.13230459  0.69197153  0.00068431    -0.08800
C3393       C  0.13318176  0.67180840  0.00664789     0.00800
C3394       C  0.13237557  0.66643630  0.02720640     0.00700
C3395       C  0.12985174  0.68177114  0.04114482    -0.12400
C3396       C  0.12856366  0.70186448  0.03505981     0.01100
C3397       C  0.13422777  0.65705012  0.99117022     0.40500
C3398       C  0.12528429  0.71689621  0.04993443     0.37100
C3399       C  0.09102709  0.72340424  0.00627123     0.36800
C3400       C  0.15860109  0.77184767  0.99389381     0.37600
N3401       N  0.13489849  0.64528330  0.97868977    -0.43200
N3402       N  0.12256462  0.72898603  0.06179372    -0.43700
N3403       N  0.17295698  0.77974443  0.98882648    -0.41000
N3404       N  0.07725795  0.71320178  0.00694286    -0.42500
H3405       H  0.09055083  0.76191411  0.00132309     0.13700
H3406       H  0.15843689  0.73438188  0.00520651     0.10200
H3407       H  0.13279538  0.69588940  0.98495739     0.11200
H3408       H  0.12901108  0.67811685  0.05690543     0.17100
C3409       C  0.00969782  0.84530883  0.13085653    -0.01200
C3410       C  0.00933052  0.83951402  0.15111858     0.07400
C3411       C  0.00477824  0.81948307  0.15554223    -0.07100
C3412       C  0.00190872  0.80512472  0.14040734     0.04900
C3413       C  0.00440950  0.81043321  0.11983709    -0.14400
C3414       C  0.00735924  0.83108999  0.11579689    -0.07700
C3415       C  0.01287629  0.85431616  0.16768411     0.05800
C3416       C  0.99840817  0.85720117  0.18228788    -0.08800
C3417       C  0.00050769  0.87180427  0.19716350     0.00800
C3418       C  0.01725799  0.88489057  0.19753259     0.00700
C3419       C  0.03229954  0.88079828  0.18348111    -0.12400
C3420       C  0.03034244  0.86581984  0.16901386     0.01100
C3421       C  0.98452553  0.87349363  0.21125367     0.40500
C3422       C  0.04693234  0.86216790  0.15607827     0.37100
C3423       C  0.01221709  0.86592367  0.12497683     0.36800
C3424       C  0.99525796  0.78580737  0.14706049     0.37600
N3425       N  0.97152711  0.87476261  0.22232640    -0.43200
N3426       N  0.06032686  0.85941120  0.14579045    -0.43700
N3427       N  0.98961145  0.77062478  0.15306998    -0.41000
N3428       N  0.01430279  0.88243011  0.12025749    -0.42500
H3429       H  0.00859551  0.83617230  0.10045495     0.13700
H3430       H  0.00339037  0.81499117  0.17105809     0.10200
H3431       H  0.98509450  0.84820706  0.18184918     0.11200
H3432       H  0.04613191  0.88883009  0.18387475     0.17100
C3433       C  0.04131655  0.78891329  0.05800721    -0.01200
C3434       C  0.05816160  0.79961462  0.06401151     0.07400
C3435       C  0.05863492  0.80769330  0.08308963    -0.07100
C3436       C  0.04240070  0.80598571  0.09602422     0.04900
C3437       C  0.02420816  0.79699802  0.08940033    -0.14400
C3438       C  0.02492039  0.78741086  0.07063203    -0.07700
C3439       C  0.07619257  0.80039815  0.05133706     0.05800
C3440       C  0.07941108  0.81663553  0.03844359    -0.08800
C3441       C  0.09406335  0.81579714  0.02360142     0.00800
C3442       C  0.10498433  0.79777060  0.02064668     0.00700
C3443       C  0.10406475  0.78341998  0.03637444    -0.12400
C3444       C  0.08951811  0.78431514  0.05107879     0.01100
C3445       C  0.09565898  0.83278358  0.01031422     0.40500
C3446       C  0.08778597  0.76800377  0.06519305     0.37100
C3447       C  0.04052623  0.77935790  0.03881078     0.36800
C3448       C  0.04640951  0.81183270  0.11629424     0.37600
N3449       N  0.09656761  0.84658264  0.99984433    -0.43200
N3450       N  0.08619000  0.75501292  0.07656057    -0.43700
N3451       N  0.05025833  0.81633721  0.13247990    -0.41000
N3452       N  0.03998804  0.77169522  0.02343455    -0.42500
H3453       H  0.01208178  0.77936899  0.06528157     0.13700
H3454       H  0.07218545  0.81471991  0.08821317     0.10200
H3455       H  0.06975381  0.82955895  0.03926913     0.11200
H3456       H  0.11390283  0.77065527  0.03679836     0.17100
C3457       C  0.97924929  0.74387178  0.09382849    -0.01200
C3458       C  0.98951797  0.73131728  0.10720952     0.07400
C3459       C  0.00608474  0.73917646  0.11724261    -0.07100
C3460       C  0.01137297  0.75958878  0.11528156     0.04900
C3461       C  0.99930951  0.77320526  0.10391421    -0.14400
C3462       C  0.98452701  0.76389479  0.09185423    -0.07700
C3463       C  0.98327000  0.70995366  0.10997646     0.05800
C3464       C  0.99560548  0.69435952  0.10361197    -0.08800
C3465       C  0.98925893  0.67432290  0.10432739     0.00800
C3466       C  0.97007271  0.66952038  0.11133509     0.00700
C3467       C  0.95778844  0.68519635  0.11758271    -0.12400
C3468       C  0.96425778  0.70508300  0.11724569     0.01100
C3469       C  0.00251399  0.65909885  0.09718065     0.40500
C3470       C  0.95122678  0.72025379  0.12492946     0.37100
C3471       C  0.96352150  0.73640644  0.08119859     0.36800
C3472       C  0.02951628  0.76565877  0.12488663     0.37600
N3473       N  0.01318373  0.64696320  0.09136959    -0.43200
N3474       N  0.94078334  0.73239786  0.13110626    -0.43700
N3475       N  0.04421058  0.76971859  0.13283366    -0.41000
N3476       N  0.95084603  0.73054967  0.07114879    -0.42500
H3477       H  0.97723649  0.77173065  0.07974395     0.13700
H3478       H  0.01494664  0.72933223  0.12667927     0.10200
H3479       H  0.01010378  0.69788213  0.09771515     0.11200
H3480       H  0.94324165  0.68184871  0.12347081     0.17100
C3481       C  0.92169301  0.81262833  0.04227747    -0.01200
C3482       C  0.94061570  0.80383604  0.04309804     0.07400
C3483       C  0.94544263  0.78966587  0.02871916    -0.07100
C3484       C  0.93294300  0.78604259  0.01233324     0.04900
C3485       C  0.91489279  0.79710311  0.00967719    -0.14400
C3486       C  0.90872421  0.80829856  0.02643640    -0.07700
C3487       C  0.95554993  0.80846646  0.05897726     0.05800
C3488       C  0.95111338  0.80486173  0.07906124    -0.08800
C3489       C  0.96617233  0.80426895  0.09366060     0.00800
C3490       C  0.98647683  0.80580044  0.08786015     0.00700
C3491       C  0.98988334  0.81415377  0.06872051    -0.12400
C3492       C  0.97483754  0.81478494  0.05418627     0.01100
C3493       C  0.96028321  0.79892512  0.11363996     0.40500
C3494       C  0.97970866  0.82128330  0.03423302     0.37100
C3495       C  0.91574191  0.82726504  0.05670297     0.36800
C3496       C  0.94017228  0.77189266  0.99801616     0.37600
N3497       N  0.95473453  0.79465054  0.12939343    -0.43200
N3498       N  0.98362363  0.82648127  0.01823987    -0.43700
N3499       N  0.94660558  0.76045742  0.98697168    -0.41000
N3500       N  0.91111686  0.83916854  0.06815166    -0.42500
H3501       H  0.89400236  0.81458859  0.02711238     0.13700
H3502       H  0.95951045  0.78183128  0.02995424     0.10200
H3503       H  0.93610126  0.80094546  0.08315439     0.11200
H3504       H  0.00451610  0.81901298  0.06444556     0.17100
C3505       C  0.95103805  0.81440706  0.96140696    -0.01200
C3506       C  0.94633435  0.80924517  0.94165019     0.07400
C3507       C  0.92638873  0.80659203  0.93659270    -0.07100
C3508       C  0.91169510  0.80599752  0.95130650     0.04900
C3509       C  0.91717627  0.80599552  0.97197081    -0.14400
C3510       C  0.93648434  0.81325119  0.97621475    -0.07700
C3511       C  0.96200857  0.80482659  0.92666127     0.05800
C3512       C  0.97557891  0.78948612  0.93084061    -0.08800
C3513       C  0.99063628  0.78447720  0.91745680     0.00800
C3514       C  0.99278125  0.79510889  0.89890898     0.00700
C3515       C  0.97805055  0.80984069  0.89457194    -0.12400
C3516       C  0.96309345  0.81475627  0.90814515     0.01100
C3517       C  0.00385832  0.76859354  0.92383091     0.40500
C3518       C  0.94972675  0.83096869  0.90318619     0.37100
C3519       C  0.97072158  0.82092632  0.96675369     0.36800
C3520       C  0.89172398  0.80294872  0.94428908     0.37600
N3521       N  0.01413443  0.75572703  0.92921193    -0.43200
N3522       N  0.93904288  0.84399061  0.89924467    -0.43700
N3523       N  0.87613489  0.80069676  0.93739749    -0.41000
N3524       N  0.98646097  0.82636822  0.97088993    -0.42500
H3525       H  0.94074415  0.81734071  0.99119185     0.13700
H3526       H  0.92237141  0.80381164  0.92117602     0.10200
H3527       H  0.97444315  0.78135129  0.94486720     0.11200
H3528       H  0.97845947  0.81870686  0.88108999     0.17100
C3529       C  0.90104757  0.74440493  0.96582323    -0.01200
C3530       C  0.88846611  0.73381217  0.97867145     0.07400
C3531       C  0.88079582  0.74377836  0.99526991    -0.07100
C3532       C  0.88496491  0.76416497  0.99868106     0.04900
C3533       C  0.89696530  0.77540927  0.98515152    -0.14400
C3534       C  0.90522643  0.76447515  0.96916689    -0.07700
C3535       C  0.88399592  0.71226299  0.97478239     0.05800
C3536       C  0.89141468  0.69733075  0.98773446    -0.08800
C3537       C  0.89077011  0.67702221  0.98245212     0.00800
C3538       C  0.88313821  0.67138245  0.96358064     0.00700
C3539       C  0.87487117  0.68629422  0.95115336    -0.12400
C3540       C  0.87482257  0.70639764  0.95676564     0.01100
C3541       C  0.89873304  0.66241958  0.99634787     0.40500
C3542       C  0.86536256  0.72087653  0.94369428     0.37100
C3543       C  0.91076440  0.73469170  0.94938671     0.36800
C3544       C  0.87628592  0.77316614  0.01603097     0.37600
N3545       N  0.90503254  0.65072166  0.00755249    -0.43200
N3546       N  0.85775783  0.73251838  0.93328408    -0.43700
N3547       N  0.86908911  0.78025579  0.02988173    -0.41000
N3548       N  0.91843072  0.72690649  0.93618608    -0.42500
H3549       H  0.91631584  0.77078059  0.95960152     0.13700
H3550       H  0.87138043  0.73565640  0.00553170     0.10200
H3551       H  0.89837849  0.70159640  0.00167168     0.11200
H3552       H  0.86816264  0.68220561  0.93703272     0.17100
C3553       C  0.82009197  0.85598180  0.00398853    -0.01200
C3554       C  0.83978147  0.86023605  0.99801288     0.07400
C3555       C  0.84441346  0.88044175  0.99475733    -0.07100
C3556       C  0.83109012  0.89595341  0.99907389     0.04900
C3557       C  0.81104332  0.89188491  0.00454444    -0.14400
C3558       C  0.80594806  0.87142414  0.00590209    -0.07700
C3559       C  0.85569148  0.84427552  0.99496615     0.05800
C3560       C  0.85098936  0.82579648  0.98628494    -0.08800
C3561       C  0.86507966  0.81023658  0.98444892     0.00800
C3562       C  0.88546305  0.81343771  0.98954700     0.00700
C3563       C  0.89034232  0.83314796  0.99515201    -0.12400
C3564       C  0.87590040  0.84742979  0.99986660     0.01100
C3565       C  0.85768709  0.79193448  0.97614312     0.40500
C3566       C  0.88236041  0.86429943  0.01142394     0.37100
C3567       C  0.81383896  0.83598956  0.00896425     0.36800
C3568       C  0.83901601  0.91591908  0.99809295     0.37600
N3569       N  0.85128144  0.77752842  0.96929277    -0.43200
N3570       N  0.88761011  0.87765596  0.02086486    -0.43700
N3571       N  0.84588364  0.93169581  0.99733625    -0.41000
N3572       N  0.80870821  0.82000568  0.01298778    -0.42500
H3573       H  0.79084708  0.86703372  0.00856333     0.13700
H3574       H  0.85883086  0.88439736  0.98900631     0.10200
H3575       H  0.83607953  0.82331390  0.98080761     0.11200
H3576       H  0.90572405  0.83675816  0.99814450     0.17100
C3577       C  0.70227236  0.90407336  0.04021485    -0.01200
C3578       C  0.71022273  0.89480149  0.02322883     0.07400
C3579       C  0.69756407  0.88384975  0.01086896    -0.07100
C3580       C  0.67739721  0.88171242  0.01527267     0.04900
C3581       C  0.66937376  0.89059886  0.03260037    -0.14400
C3582       C  0.68209618  0.90185489  0.04479063    -0.07700
C3583       C  0.73160299  0.89661822  0.01785067     0.05800
C3584       C  0.74620673  0.88860944  0.03054419    -0.08800
C3585       C  0.76650245  0.89111447  0.02664003     0.00800
C3586       C  0.77301947  0.90164931  0.00915160     0.00700
C3587       C  0.75770034  0.90906033  0.99627710    -0.12400
C3588       C  0.73753199  0.90663460  0.00042714     0.01100
C3589       C  0.77995736  0.88352703  0.04178465     0.40500
C3590       C  0.72312041  0.91591424  0.98719796     0.37100
C3591       C  0.71447835  0.91625567  0.05295246     0.36800
C3592       C  0.66563107  0.86970829  0.00194473     0.37600
N3593       N  0.79017639  0.87702145  0.05420007    -0.43200
N3594       N  0.71156508  0.92339265  0.97665903    -0.43700
N3595       N  0.65630412  0.86005737  0.99120402    -0.41000
N3596       N  0.72429041  0.92605076  0.06310626    -0.42500
H3597       H  0.67632217  0.90886318  0.05804382     0.13700
H3598       H  0.70356214  0.87673629  0.99776121     0.10200
H3599       H  0.74167301  0.88079902  0.04399958     0.11200
H3600       H  0.76091794  0.91829165  0.98347256     0.17100
C3601       C  0.83765906  0.02724764  0.14657095    -0.01200
C3602       C  0.83735579  0.01157175  0.16068159     0.07400
C3603       C  0.82148085  0.99824696  0.16015634    -0.07100
C3604       C  0.80613710  0.00017144  0.14589870     0.04900
C3605       C  0.80650545  0.01558030  0.13090664    -0.14400
C3606       C  0.82316999  0.02843989  0.13147000    -0.07700
C3607       C  0.85363888  0.00864085  0.17579263     0.05800
C3608       C  0.85612111  0.02259502  0.19092151    -0.08800
C3609       C  0.87186619  0.02110773  0.20469404     0.00800
C3610       C  0.88622552  0.00534102  0.20350811     0.00700
C3611       C  0.88278482  0.99075116  0.18875018    -0.12400
C3612       C  0.86686473  0.99233377  0.17508617     0.01100
C3613       C  0.87336343  0.03695920  0.21903124     0.40500
C3614       C  0.86460785  0.97719382  0.16010719     0.37100
C3615       C  0.85268645  0.04249686  0.14716593     0.36800
C3616       C  0.79019552  0.98602797  0.14766652     0.37600
N3617       N  0.87419013  0.04994239  0.23023863    -0.43200
N3618       N  0.86267076  0.96507605  0.14809843    -0.43700
N3619       N  0.77779760  0.97441821  0.15014116    -0.41000
N3620       N  0.86429008  0.05514211  0.14766013    -0.42500
H3621       H  0.82553366  0.03953393  0.12000507     0.13700
H3622       H  0.82097527  0.98629084  0.17117230     0.10200
H3623       H  0.84581549  0.03501179  0.19175837     0.11200
H3624       H  0.89231200  0.97784544  0.18773399     0.17100
C3625       C  0.81415047  0.97381137  0.08248385    -0.01200
C3626       C  0.79776719  0.96199180  0.07731532     0.07400
C3627       C  0.77999826  0.96485523  0.08758011    -0.07100
C3628       C  0.77730914  0.98102620  0.10041899     0.04900
C3629       C  0.79290152  0.99520592  0.10319778    -0.14400
C3630       C  0.81182428  0.98955032  0.09592754    -0.07700
C3631       C  0.79791099  0.94836984  0.05974744     0.05800
C3632       C  0.81137134  0.93241434  0.05861736    -0.08800
C3633       C  0.81174434  0.91962983  0.04200010     0.00800
C3634       C  0.79802437  0.92255177  0.02577106     0.00700
C3635       C  0.78417774  0.93840616  0.02784311    -0.12400
C3636       C  0.78447282  0.95143135  0.04388780     0.01100
C3637       C  0.82566822  0.90329263  0.04332891     0.40500
C3638       C  0.77129423  0.96848441  0.04321876     0.37100
C3639       C  0.83294612  0.97148121  0.07264927     0.36800
C3640       C  0.75854259  0.98158114  0.11058116     0.37600
N3641       N  0.83687466  0.89025202  0.04501633    -0.43200
N3642       N  0.76089259  0.98224572  0.04271283    -0.43700
N3643       N  0.74343420  0.98156858  0.11864013    -0.41000
N3644       N  0.84794948  0.96962720  0.06463462    -0.42500
H3645       H  0.82444713  0.99909495  0.09874131     0.13700
H3646       H  0.76770791  0.95487571  0.08468219     0.10200
H3647       H  0.82156592  0.92979416  0.07097010     0.11200
H3648       H  0.77327223  0.94118308  0.01617497     0.17100
C3649       C  0.73605577  0.03075578  0.10435614    -0.01200
C3650       C  0.72889911  0.03557348  0.12327603     0.07400
C3651       C  0.74183200  0.03412357  0.13967815    -0.07100
C3652       C  0.76174801  0.02798470  0.13758798     0.04900
C3653       C  0.76913819  0.02219252  0.11848786    -0.14400
C3654       C  0.75560338  0.02412638  0.10215482    -0.07700
C3655       C  0.70776712  0.04162926  0.12609810     0.05800
C3656       C  0.69349872  0.02675473  0.12881757    -0.08800
C3657       C  0.67328781  0.03151135  0.13048890     0.00800
C3658       C  0.66682227  0.05167892  0.12931876     0.00700
C3659       C  0.68127177  0.06656771  0.12651436    -0.12400
C3660       C  0.70152804  0.06171654  0.12497500     0.01100
C3661       C  0.65961855  0.01520980  0.13309854     0.40500
C3662       C  0.71568595  0.07756779  0.12222779     0.37100
C3663       C  0.72359145  0.03275606  0.08683630     0.36800
C3664       C  0.77382297  0.02943472  0.15533733     0.37600
N3665       N  0.64873175  0.00207828  0.13520349    -0.43200
N3666       N  0.72705121  0.09027038  0.12006328    -0.43700
N3667       N  0.78303001  0.03110121  0.16986691    -0.41000
N3668       N  0.71359200  0.03451557  0.07282088    -0.42500
H3669       H  0.76043097  0.02033129  0.08728605     0.13700
H3670       H  0.73637680  0.03824061  0.15424969     0.10200
H3671       H  0.69819686  0.01126811  0.12947701     0.11200
H3672       H  0.67680052  0.08210579  0.12576484     0.17100
C3673       C  0.84206723  0.14366725  0.00214711    -0.01200
C3674       C  0.83772418  0.16424606  0.00162895     0.07400
C3675       C  0.81803035  0.16997238  0.99766819    -0.07100
C3676       C  0.80274071  0.15593092  0.99486029     0.04900
C3677       C  0.80656606  0.13497431  0.99721008    -0.14400
C3678       C  0.82683307  0.12956319  0.99995075    -0.07700
C3679       C  0.85361296  0.18005033  0.00291290     0.05800
C3680       C  0.85535029  0.19382777  0.98720713    -0.08800
C3681       C  0.86992743  0.20874636  0.98717022     0.00800
C3682       C  0.88441350  0.20996043  0.00286350     0.00700
C3683       C  0.88161561  0.19672738  0.01930061    -0.12400
C3684       C  0.86658551  0.18208023  0.01942303     0.01100
C3685       C  0.86979460  0.22193283  0.97002604     0.40500
C3686       C  0.86422343  0.16989610  0.03712378     0.37100
C3687       C  0.86220035  0.13651253  0.00407166     0.36800
C3688       C  0.78420978  0.16414845  0.98767150     0.37600
N3689       N  0.86897242  0.23187715  0.95583165    -0.43200
N3690       N  0.86232296  0.16016972  0.05134090    -0.43700
N3691       N  0.76966065  0.17123019  0.98160909    -0.41000
N3692       N  0.87832443  0.13072755  0.00559349    -0.42500
H3693       H  0.83083059  0.11390547  0.00083711     0.13700
H3694       H  0.81463985  0.18575114  0.99612620     0.10200
H3695       H  0.84521639  0.19282498  0.97461290     0.11200
H3696       H  0.89074227  0.19791855  0.03253799     0.17100
C3697       C  0.80636917  0.09672503  0.04910966    -0.01200
C3698       C  0.79547812  0.07892284  0.05037408     0.07400
C3699       C  0.78083597  0.07543914  0.03601901    -0.07100
C3700       C  0.77838818  0.08791727  0.01934792     0.04900
C3701       C  0.79067867  0.10512220  0.01663084    -0.14400
C3702       C  0.80320518  0.11000309  0.03300630    -0.07700
C3703       C  0.79850223  0.06360766  0.06647591     0.05800
C3704       C  0.79592808  0.06875775  0.08643676    -0.08800
C3705       C  0.79522448  0.05416297  0.10161287     0.00800
C3706       C  0.79651064  0.03333259  0.09708275     0.00700
C3707       C  0.79958257  0.02872039  0.07666089    -0.12400
C3708       C  0.80140107  0.04341092  0.06185926     0.01100
C3709       C  0.79256875  0.06143150  0.12160102     0.40500
C3710       C  0.80581969  0.03720882  0.04177472     0.37100
C3711       C  0.82172756  0.10117447  0.06347318     0.36800
C3712       C  0.76393901  0.08126681  0.00494093     0.37600
N3713       N  0.79089168  0.06792105  0.13742071    -0.43200
N3714       N  0.80949206  0.03214448  0.02577498    -0.43700
N3715       N  0.75213361  0.07487016  0.99418675    -0.41000
N3716       N  0.83416780  0.10467128  0.07487195    -0.42500
H3717       H  0.81126069  0.12386089  0.03331683     0.13700
H3718       H  0.77165032  0.06225224  0.03747733     0.10200
H3719       H  0.79364429  0.08429820  0.09014551     0.11200
H3720       H  0.79937497  0.01366789  0.07130305     0.17100
C3721       C  0.69151179  0.12153795  0.99291953    -0.01200
C3722       C  0.70475904  0.13773699  0.99527132     0.07400
C3723       C  0.69677263  0.15708464  0.99598023    -0.07100
C3724       C  0.67626866  0.16047843  0.99369256     0.04900
C3725       C  0.66318567  0.14433229  0.99021071    -0.14400
C3726       C  0.67109462  0.12495460  0.99011677    -0.07700
C3727       C  0.72688390  0.13469272  0.99480919     0.05800
C3728       C  0.73485735  0.12463998  0.97862438    -0.08800
C3729       C  0.75484265  0.11885376  0.97792399     0.00800
C3730       C  0.76855239  0.12441013  0.99349630     0.00700
C3731       C  0.76018673  0.13544895  0.00941930    -0.12400
C3732       C  0.73993851  0.14073184  0.01007207     0.01100
C3733       C  0.75864695  0.10498470  0.96214010     0.40500
C3734       C  0.73293519  0.15210246  0.02675786     0.37100
C3735       C  0.69853244  0.10116546  0.99330247     0.36800
C3736       C  0.66927989  0.18086727  0.99365160     0.37600
N3737       N  0.75994270  0.09357525  0.94937571    -0.43200
N3738       N  0.72740291  0.16143741  0.04003322    -0.43700
N3739       N  0.66364202  0.19719225  0.99359519    -0.41000
N3740       N  0.70417090  0.08484455  0.99360380    -0.42500
H3741       H  0.66129844  0.11240825  0.98774600     0.13700
H3742       H  0.70666171  0.16968646  0.99752031     0.10200
H3743       H  0.72487340  0.12021568  0.96668798     0.11200
H3744       H  0.76969096  0.13988902  0.02169751     0.17100
C3745       C  0.87317670  0.02043693  0.83266858    -0.01200
C3746       C  0.85296239  0.02068971  0.82722389     0.07400
C3747       C  0.84810240  0.02541837  0.80733771    -0.07100
C3748       C  0.86278074  0.02829258  0.79274279     0.04900
C3749       C  0.88320818  0.02435866  0.79738963    -0.14400
C3750       C  0.88783474  0.02174770  0.81796703    -0.07700
C3751       C  0.83676913  0.01687711  0.84211523     0.05800
C3752       C  0.82133981  0.03078301  0.84413629    -0.08800
C3753       C  0.80650434  0.02829364  0.85859083     0.00800
C3754       C  0.80706978  0.01176729  0.87225916     0.00700
C3755       C  0.82151363  0.99692921  0.86856265    -0.12400
C3756       C  0.83620338  0.99939357  0.85405093     0.01100
C3757       C  0.79162806  0.04377626  0.85974386     0.40500
C3758       C  0.85039078  0.98343802  0.85172366     0.37100
C3759       C  0.87930316  0.01950878  0.85334500     0.36800
C3760       C  0.85590244  0.03705433  0.77419160     0.37600
N3761       N  0.77987891  0.05635194  0.86057043    -0.43200
N3762       N  0.86172213  0.97054613  0.85031039    -0.43700
N3763       N  0.84987305  0.04448499  0.75968573    -0.41000
N3764       N  0.88414661  0.01894881  0.86993979    -0.42500
H3765       H  0.90318397  0.02016666  0.82261925     0.13700
H3766       H  0.83262105  0.02725107  0.80321045     0.10200
H3767       H  0.82114359  0.04401327  0.83468415     0.11200
H3768       H  0.82156624  0.98306643  0.87691440     0.17100
C3769       C  0.80926074  0.06990831  0.96871400    -0.01200
C3770       C  0.80602637  0.07513729  0.94863908     0.07400
C3771       C  0.80345068  0.09540266  0.94377572    -0.07100
C3772       C  0.80050367  0.10965194  0.95883938     0.04900
C3773       C  0.79868404  0.10335940  0.97917641    -0.14400
C3774       C  0.80599030  0.08388791  0.98360721    -0.07700
C3775       C  0.80291073  0.05934168  0.93336827     0.05800
C3776       C  0.78814550  0.04513347  0.93679206    -0.08800
C3777       C  0.78469487  0.02943053  0.92360766     0.00800
C3778       C  0.79563397  0.02783029  0.90546543     0.00700
C3779       C  0.81098457  0.04214213  0.90271487    -0.12400
C3780       C  0.81445254  0.05769550  0.91616668     0.01100
C3781       C  0.76965193  0.01535685  0.92957883     0.40500
C3782       C  0.83067100  0.07118245  0.91249160     0.37100
C3783       C  0.81608293  0.05020064  0.97437088     0.36800
C3784       C  0.79736840  0.13006208  0.95253200     0.37600
N3785       N  0.75744297  0.00446630  0.93482172    -0.43200
N3786       N  0.84369357  0.08196524  0.90954956    -0.43700
N3787       N  0.79503188  0.14627438  0.94688319    -0.41000
N3788       N  0.82181998  0.03450052  0.97887762    -0.42500
H3789       H  0.80906377  0.07904376  0.99873513     0.13700
H3790       H  0.80217641  0.09990344  0.92823348     0.10200
H3791       H  0.77928191  0.04621281  0.95017972     0.11200
H3792       H  0.82124901  0.04105429  0.89054754     0.17100
C3793       C  0.78163168  0.96157962  0.92167290    -0.01200
C3794       C  0.79898824  0.95930762  0.93315510     0.07400
C3795       C  0.81516572  0.97162719  0.92885561    -0.07100
C3796       C  0.81374450  0.98722469  0.91474305     0.04900
C3797       C  0.79587865  0.99050347  0.90351080    -0.14400
C3798       C  0.78030071  0.97664980  0.90708642    -0.07700
C3799       C  0.79952357  0.94631107  0.95145007     0.05800
C3800       C  0.79581307  0.92578321  0.95025371    -0.08800
C3801       C  0.79450983  0.91374977  0.96754200     0.00800
C3802       C  0.79725951  0.92208496  0.98692355     0.00700
C3803       C  0.80252532  0.94255245  0.98745467    -0.12400
C3804       C  0.80273863  0.95460810  0.97035523     0.01100
C3805       C  0.78916961  0.89310854  0.96484784     0.40500
C3806       C  0.80512733  0.97583346  0.97282585     0.37100
C3807       C  0.76412407  0.94998898  0.92594971     0.36800
C3808       C  0.83075682  0.00012711  0.91312405     0.37600
N3809       N  0.78464075  0.87665887  0.96254864    -0.43200
N3810       N  0.80675558  0.99286701  0.97474575    -0.43700
N3811       N  0.84459477  0.01020720  0.91203555    -0.41000
N3812       N  0.75007704  0.94079454  0.92945226    -0.42500
H3813       H  0.76593401  0.97835008  0.90017322     0.13700
H3814       H  0.82869049  0.96982989  0.93756752     0.10200
H3815       H  0.79336266  0.91921746  0.93573528     0.11200
H3816       H  0.80675929  0.94967272  0.00117511     0.17100
C3817       C  0.73578986  0.02026920  0.88333194    -0.01200
C3818       C  0.72974197  0.00392184  0.87173125     0.07400
C3819       C  0.74444492  0.99239404  0.86268699    -0.07100
C3820       C  0.76463855  0.99514451  0.86707478     0.04900
C3821       C  0.77080418  0.00993824  0.88102289    -0.14400
C3822       C  0.75602443  0.02366388  0.88698433    -0.07700
C3823       C  0.70833576  0.99831993  0.86913404     0.05800
C3824       C  0.69475949  0.01234612  0.86133754    -0.08800
C3825       C  0.67469224  0.00753506  0.85842993     0.00800
C3826       C  0.66765361  0.98818027  0.86337674     0.00700
C3827       C  0.68122294  0.97426554  0.87144037    -0.12400
C3828       C  0.70130926  0.97905494  0.87416938     0.01100
C3829       C  0.66180016  0.02291312  0.85036958     0.40500
C3830       C  0.71440959  0.96378370  0.88207119     0.37100
C3831       C  0.72154740  0.03303310  0.89291659     0.36800
C3832       C  0.77822017  0.98097197  0.85854801     0.37600
N3833       N  0.65160340  0.03533410  0.84387237    -0.43200
N3834       N  0.72490162  0.95142236  0.88817000    -0.43700
N3835       N  0.78869916  0.96932312  0.85155180    -0.41000
N3836       N  0.71019653  0.04323438  0.90072586    -0.42500
H3837       H  0.75985150  0.03667883  0.89548833     0.13700
H3838       H  0.74004386  0.98043723  0.85284782     0.10200
H3839       H  0.69993072  0.02710207  0.85719938     0.11200
H3840       H  0.67625770  0.95933423  0.87517254     0.17100
C3841       C  0.77754687  0.50343891  0.60988711    -0.01200
C3842       C  0.78386825  0.48526273  0.61853155     0.07400
C3843       C  0.76937472  0.47211920  0.62560572    -0.07100
C3844       C  0.74896921  0.47632955  0.62346131     0.04900
C3845       C  0.74211179  0.49442104  0.61399252    -0.14400
C3846       C  0.75726058  0.50772908  0.60757906    -0.07700
C3847       C  0.80549943  0.47977698  0.62006440     0.05800
C3848       C  0.81834581  0.49200827  0.63097520    -0.08800
C3849       C  0.83874390  0.48787531  0.63247125     0.00800
C3850       C  0.84701566  0.47103768  0.62281727     0.00700
C3851       C  0.83404706  0.45867417  0.61200813    -0.12400
C3852       C  0.81357268  0.46287610  0.61056799     0.01100
C3853       C  0.85053577  0.50096095  0.64468449     0.40500
C3854       C  0.80120220  0.44981340  0.59892008     0.37100
C3855       C  0.79165991  0.51756655  0.60199554     0.36800
C3856       C  0.73558220  0.46091841  0.63010859     0.37600
N3857       N  0.85984457  0.51148282  0.65457773    -0.43200
N3858       N  0.79126499  0.43932048  0.58962864    -0.43700
N3859       N  0.72517441  0.44838756  0.63564092    -0.41000
N3860       N  0.80292970  0.52893338  0.59572286    -0.42500
H3861       H  0.75388147  0.52107581  0.59913782     0.13700
H3862       H  0.77405940  0.45815077  0.63251080     0.10200
H3863       H  0.81232821  0.50486663  0.63855562     0.11200
H3864       H  0.83989333  0.44563939  0.60461531     0.17100
C3865       C  0.69977201  0.42856793  0.53619542    -0.01200
C3866       C  0.71539280  0.43005632  0.55009372     0.07400
C3867       C  0.73213631  0.41797660  0.54768607    -0.07100
C3868       C  0.73495318  0.40700607  0.53028155     0.04900
C3869       C  0.72099054  0.40871995  0.51415057    -0.14400
C3870       C  0.70246137  0.41754039  0.51877455    -0.07700
C3871       C  0.71615101  0.44617484  0.56520432     0.05800
C3872       C  0.70213739  0.44734364  0.58049543    -0.08800
C3873       C  0.70236584  0.46306412  0.59433382     0.00800
C3874       C  0.71691425  0.47847412  0.59279218     0.00700
C3875       C  0.73128578  0.47633338  0.57756331    -0.12400
C3876       C  0.73089369  0.46084712  0.56395697     0.01100
C3877       C  0.68780119  0.46196299  0.60989569     0.40500
C3878       C  0.74532384  0.46101045  0.54811683     0.37100
C3879       C  0.68136735  0.43921903  0.53878870     0.36800
C3880       C  0.75168960  0.39350906  0.53052034     0.37600
N3881       N  0.67596824  0.46044444  0.62221763    -0.43200
N3882       N  0.75683713  0.46105370  0.53541909    -0.43700
N3883       N  0.76506732  0.38265325  0.53106627    -0.41000
N3884       N  0.66654271  0.44762295  0.54093633    -0.42500
H3885       H  0.69058531  0.41738382  0.50781591     0.13700
H3886       H  0.74355931  0.41787735  0.55917690     0.10200
H3887       H  0.69099201  0.43579310  0.58168221     0.11200
H3888       H  0.74256203  0.48762854  0.57560983     0.17100
C3889       C  0.77994888  0.40912037  0.48640778    -0.01200
C3890       C  0.78742761  0.39109201  0.47912723     0.07400
C3891       C  0.77439319  0.37509791  0.47657277    -0.07100
C3892       C  0.75406579  0.37672274  0.48102865     0.04900
C3893       C  0.74610216  0.39509803  0.48829939    -0.14400
C3894       C  0.75972925  0.41107693  0.49047557    -0.07700
C3895       C  0.80873487  0.38887282  0.47361662     0.05800
C3896       C  0.82315947  0.38703115  0.48869750    -0.08800
C3897       C  0.84333620  0.38485617  0.48409444     0.00800
C3898       C  0.84953963  0.38451546  0.46390749     0.00700
C3899       C  0.83498599  0.38689477  0.44885926    -0.12400
C3900       C  0.81481719  0.38902477  0.45354769     0.01100
C3901       C  0.85723776  0.38310216  0.50050306     0.40500
C3902       C  0.80055429  0.39154861  0.43754445     0.37100
C3903       C  0.79276609  0.42598313  0.48964976     0.36800
C3904       C  0.74239057  0.35927047  0.47690015     0.37600
N3905       N  0.86834585  0.38170805  0.51369131    -0.43200
N3906       N  0.78902829  0.39363449  0.42481160    -0.43700
N3907       N  0.73350610  0.34498564  0.47335419    -0.41000
N3908       N  0.80308446  0.43944396  0.49234608    -0.42500
H3909       H  0.75450292  0.42534348  0.49581067     0.13700
H3910       H  0.78018828  0.36119872  0.47082721     0.10200
H3911       H  0.81859086  0.38718251  0.50416997     0.11200
H3912       H  0.83927931  0.38667337  0.43331706     0.17100
C3913       C  0.70817303  0.46731551  0.41444645    -0.01200
C3914       C  0.72086903  0.46446836  0.43096710     0.07400
C3915       C  0.73647969  0.47782121  0.43356724    -0.07100
C3916       C  0.73951674  0.49399708  0.42053427     0.04900
C3917       C  0.72727158  0.49701984  0.40313959    -0.14400
C3918       C  0.71118504  0.48339404  0.40110740    -0.07700
C3919       C  0.71818582  0.44816940  0.44623670     0.05800
C3920       C  0.71967478  0.42814039  0.44071043    -0.08800
C3921       C  0.72020862  0.41262058  0.45506658     0.00800
C3922       C  0.71931423  0.41675763  0.47596276     0.00700
C3923       C  0.71762208  0.43724450  0.48102909    -0.12400
C3924       C  0.71641063  0.45251509  0.46663055     0.01100
C3925       C  0.72152734  0.39262206  0.44749013     0.40500
C3926       C  0.71371154  0.47277465  0.47329022     0.37100
C3927       C  0.69134905  0.45444966  0.41130076     0.36800
C3928       C  0.75551262  0.50701634  0.42618183     0.37600
N3929       N  0.72213664  0.37688738  0.44060377    -0.43200
N3930       N  0.71147922  0.48898682  0.47860323    -0.43700
N3931       N  0.76867991  0.51652264  0.43172016    -0.41000
N3932       N  0.67787450  0.44415459  0.40868913    -0.42500
H3933       H  0.69999622  0.48543270  0.38969935     0.13700
H3934       H  0.74635054  0.47573773  0.44629672     0.10200
H3935       H  0.72108803  0.42460770  0.42503520     0.11200
H3936       H  0.71843948  0.44205591  0.49629467     0.17100
C3937       C  0.78538982  0.50541700  0.37744050    -0.01200
C3938       C  0.79081568  0.52181994  0.36520963     0.07400
C3939       C  0.77536997  0.53349817  0.35704752    -0.07100
C3940       C  0.75558670  0.53129979  0.36336186     0.04900
C3941       C  0.75038103  0.51637884  0.37783680    -0.14400
C3942       C  0.76540448  0.50216477  0.38236201    -0.07700
C3943       C  0.81224949  0.52735756  0.36139614     0.05800
C3944       C  0.82590369  0.51263409  0.35551061    -0.08800
C3945       C  0.84617127  0.51689759  0.35295094     0.00800
C3946       C  0.85340916  0.53646983  0.35596806     0.00700
C3947       C  0.83976284  0.55123681  0.36148502    -0.12400
C3948       C  0.81953616  0.54704114  0.36396173     0.01100
C3949       C  0.85913999  0.50068875  0.34758532     0.40500
C3950       C  0.80683707  0.56359761  0.36889640     0.37100
C3951       C  0.80005896  0.49242907  0.38657408     0.36800
C3952       C  0.74161861  0.54575418  0.35553155     0.37600
N3953       N  0.86943156  0.48758327  0.34334391    -0.43200
N3954       N  0.79700549  0.57725185  0.37250547    -0.43700
N3955       N  0.73111673  0.55768509  0.34862610    -0.41000
N3956       N  0.81173397  0.48202569  0.39403554    -0.42500
H3957       H  0.76212337  0.48886120  0.39086668     0.13700
H3958       H  0.77892204  0.54526888  0.34647144     0.10200
H3959       H  0.82071837  0.49762235  0.35278844     0.11200
H3960       H  0.84484385  0.56641337  0.36351323     0.17100
C3961       C  0.72061299  0.59732540  0.45060867    -0.01200
C3962       C  0.71790636  0.57648842  0.45078422     0.07400
C3963       C  0.71630797  0.56671040  0.46909222    -0.07100
C3964       C  0.71708789  0.57694510  0.48706026     0.04900
C3965       C  0.72215764  0.59776635  0.48752143    -0.14400
C3966       C  0.72267283  0.60764550  0.46868740    -0.07700
C3967       C  0.71872215  0.56393251  0.43253860     0.05800
C3968       C  0.73612062  0.56427910  0.42154348    -0.08800
C3969       C  0.74062125  0.54941110  0.40775831     0.00800
C3970       C  0.72652089  0.53410720  0.40306999     0.00700
C3971       C  0.70873521  0.53433341  0.41426928    -0.12400
C3972       C  0.70477224  0.54884860  0.42861867     0.01100
C3973       C  0.76123042  0.54901842  0.40262259     0.40500
C3974       C  0.68639129  0.54764285  0.43943700     0.37100
C3975       C  0.72112341  0.60846242  0.43208752     0.36800
C3976       C  0.70975396  0.56538127  0.50360474     0.37600
N3977       N  0.77817293  0.54908447  0.40027672    -0.43200
N3978       N  0.67173934  0.54654537  0.44821845    -0.43700
N3979       N  0.70300672  0.55553511  0.51603918    -0.41000
N3980       N  0.72143544  0.61742231  0.41724435    -0.42500
H3981       H  0.72512782  0.62361193  0.46812244     0.13700
H3982       H  0.71398037  0.55069265  0.46936594     0.10200
H3983       H  0.74736450  0.57515607  0.42541536     0.11200
H3984       H  0.69771410  0.52289540  0.41174435     0.17100
C3985       C  0.70660363  0.58699731  0.55674281    -0.01200
C3986       C  0.72070031  0.57184253  0.56018816     0.07400
C3987       C  0.73705926  0.57051137  0.54773297    -0.07100
C3988       C  0.73872940  0.58261784  0.53081278     0.04900
C3989       C  0.72392538  0.59743046  0.52616206    -0.14400
C3990       C  0.70848741  0.59988393  0.54017586    -0.07700
C3991       C  0.71683998  0.55431083  0.57319367     0.05800
C3992       C  0.71092774  0.53693906  0.56374778    -0.08800
C3993       C  0.71048998  0.51862055  0.57362629     0.00800
C3994       C  0.71712447  0.51701717  0.59402968     0.00700
C3995       C  0.72068063  0.53531213  0.60399192    -0.12400
C3996       C  0.72101692  0.55368901  0.59370082     0.01100
C3997       C  0.70141132  0.50292613  0.56210832     0.40500
C3998       C  0.72635548  0.57154745  0.60421705     0.37100
C3999       C  0.68967301  0.58901881  0.56956165     0.36800
C4000       C  0.75472307  0.57755122  0.51754372     0.37600
N4001       N  0.69378159  0.49093309  0.55244439    -0.43200
N4002       N  0.73054145  0.58594726  0.61259181    -0.43700
N4003       N  0.76753039  0.57288800  0.50718430    -0.41000
N4004       N  0.67613426  0.59063760  0.57990358    -0.42500
H4005       H  0.69744982  0.61144553  0.53816619     0.13700
H4006       H  0.74776957  0.55861084  0.55030580     0.10200
H4007       H  0.70678319  0.53763520  0.54809621     0.11200
H4008       H  0.72451098  0.53502324  0.61974346     0.17100
C4009       C  0.78167869  0.61998383  0.49630154    -0.01200
C4010       C  0.78847911  0.62746015  0.51462350     0.07400
C4011       C  0.77456033  0.63244825  0.52907618    -0.07100
C4012       C  0.75429964  0.62876723  0.52623185     0.04900
C4013       C  0.74710446  0.61964630  0.50827934    -0.14400
C4014       C  0.76142859  0.61624539  0.49325058    -0.07700
C4015       C  0.81006996  0.62957984  0.51926663     0.05800
C4016       C  0.82165877  0.64236808  0.50755462    -0.08800
C4017       C  0.84192679  0.64489753  0.51153603     0.00800
C4018       C  0.85105085  0.63479199  0.52794643     0.00700
C4019       C  0.83941658  0.62171878  0.53945419    -0.12400
C4020       C  0.81921775  0.61893128  0.53516443     0.01100
C4021       C  0.85270643  0.65833004  0.49865283     0.40500
C4022       C  0.80825395  0.60471728  0.54701796     0.37100
C4023       C  0.79542459  0.61457537  0.48085101     0.36800
C4024       C  0.74148178  0.63400349  0.54257658     0.37600
N4025       N  0.86128435  0.66904850  0.48822404    -0.43200
N4026       N  0.79943123  0.59328856  0.55643145    -0.43700
N4027       N  0.73137238  0.63848243  0.55566581    -0.41000
N4028       N  0.80649611  0.61028422  0.46851425    -0.42500
H4029       H  0.75760033  0.60905738  0.47948659     0.13700
H4030       H  0.77967426  0.63878864  0.54301512     0.10200
H4031       H  0.81476541  0.65056107  0.49528549     0.11200
H4032       H  0.84607043  0.61368271  0.55194739     0.17100
C4033       C  0.52099107  0.40535938  0.77491613    -0.01200
C4034       C  0.53094928  0.38833903  0.78235484     0.07400
C4035       C  0.53591909  0.37325273  0.76898081    -0.07100
C4036       C  0.53226026  0.37521836  0.74839181     0.04900
C4037       C  0.52150819  0.39209469  0.74058220    -0.14400
C4038       C  0.51638790  0.40702425  0.75452919    -0.07700
C4039       C  0.53751337  0.38646717  0.80371226     0.05800
C4040       C  0.52339862  0.38679439  0.81898609    -0.08800
C4041       C  0.52899200  0.38414628  0.83909923     0.00800
C4042       C  0.54920638  0.38125901  0.84436848     0.00700
C4043       C  0.56333290  0.38152430  0.82906481    -0.12400
C4044       C  0.55769710  0.38390532  0.80898082     0.01100
C4045       C  0.51359245  0.38441369  0.85391488     0.40500
C4046       C  0.57295362  0.38347686  0.79400625     0.37100
C4047       C  0.51641092  0.42195492  0.78764943     0.36800
C4048       C  0.54199925  0.36061335  0.73617366     0.37600
N4049       N  0.50120369  0.38458954  0.86574624    -0.43200
N4050       N  0.58509255  0.38293084  0.78193124    -0.43700
N4051       N  0.55015882  0.34885054  0.72672123    -0.41000
N4052       N  0.51280540  0.43532030  0.79779319    -0.42500
H4053       H  0.50912877  0.42054659  0.74930728     0.13700
H4054       H  0.54384989  0.36021826  0.77459512     0.10200
H4055       H  0.50786475  0.38870834  0.81513350     0.11200
H4056       H  0.57886056  0.37920106  0.83270432     0.17100
C4057       C  0.44738675  0.45706995  0.71853588    -0.01200
C4058       C  0.44689752  0.44288245  0.70326914     0.07400
C4059       C  0.43339295  0.44568215  0.68741540    -0.07100
C4060       C  0.42053841  0.46237612  0.68653000     0.04900
C4061       C  0.42206995  0.47764741  0.70121737    -0.14400
C4062       C  0.43614161  0.47436297  0.71679688    -0.07700
C4063       C  0.46166394  0.42624268  0.70332342     0.05800
C4064       C  0.46266029  0.41322082  0.71978973    -0.08800
C4065       C  0.48003616  0.40248837  0.72433715     0.00800
C4066       C  0.49734969  0.40532513  0.71250910     0.00700
C4067       C  0.49433053  0.41468435  0.69365609    -0.12400
C4068       C  0.47703529  0.42559633  0.68927105     0.01100
C4069       C  0.47886863  0.38832836  0.74065290     0.40500
C4070       C  0.47660292  0.43793440  0.67148872     0.37100
C4071       C  0.45923852  0.45444354  0.73643764     0.36800
C4072       C  0.40598991  0.46245924  0.67068510     0.37600
N4073       N  0.47765060  0.37694899  0.75369032    -0.43200
N4074       N  0.47637992  0.44783085  0.65723910    -0.43700
N4075       N  0.39441221  0.46179469  0.65787473    -0.41000
N4076       N  0.46844362  0.45233546  0.75095564    -0.42500
H4077       H  0.43817594  0.48550723  0.72820825     0.13700
H4078       H  0.43267360  0.43454201  0.67582397     0.10200
H4079       H  0.45018082  0.41242023  0.72986003     0.11200
H4080       H  0.50645486  0.41565545  0.68327805     0.17100
C4081       C  0.40495382  0.50443971  0.76137276    -0.01200
C4082       C  0.39572621  0.48681073  0.76787268     0.07400
C4083       C  0.38913348  0.47335078  0.75353485    -0.07100
C4084       C  0.39202730  0.47682496  0.73304173     0.04900
C4085       C  0.40137361  0.49478569  0.72587828    -0.14400
C4086       C  0.40754930  0.50832108  0.74091545    -0.07700
C4087       C  0.39280326  0.48218631  0.78957797     0.05800
C4088       C  0.37946962  0.49378466  0.80043009    -0.08800
C4089       C  0.37581502  0.48983332  0.82069229     0.00800
C4090       C  0.38577897  0.47390616  0.83081394     0.00700
C4091       C  0.39930719  0.46239502  0.81984077    -0.12400
C4092       C  0.40284854  0.46638449  0.79949177     0.01100
C4093       C  0.36130288  0.50221350  0.83035108     0.40500
C4094       C  0.41713063  0.45429323  0.78915009     0.37100
C4095       C  0.41334242  0.51815309  0.77556682     0.36800
C4096       C  0.38625543  0.46075767  0.72001358     0.37600
N4097       N  0.34959427  0.51220641  0.83789944    -0.43200
N4098       N  0.42859855  0.44463025  0.78085367    -0.43700
N4099       N  0.38147253  0.44771946  0.70990485    -0.41000
N4100       N  0.42025551  0.52904880  0.78691003    -0.42500
H4101       H  0.41601090  0.52144281  0.73735795     0.13700
H4102       H  0.38209381  0.45965427  0.75847107     0.10200
H4103       H  0.37162568  0.50588904  0.79290011     0.11200
H4104       H  0.40714191  0.45016337  0.82713503     0.17100
C4105       C  0.47055327  0.57805865  0.68879412    -0.01200
C4106       C  0.45700774  0.57081762  0.70295037     0.07400
C4107       C  0.45734067  0.57899143  0.72195310    -0.07100
C4108       C  0.47122102  0.59344568  0.72757651     0.04900
C4109       C  0.48546911  0.60099939  0.71353604    -0.14400
C4110       C  0.48443632  0.59271045  0.69410476    -0.07700
C4111       C  0.44423605  0.55291058  0.69958766     0.05800
C4112       C  0.45335520  0.53479370  0.69520586    -0.08800
C4113       C  0.44275701  0.51685240  0.69484948     0.00800
C4114       C  0.42223354  0.51627853  0.70066960     0.00700
C4115       C  0.41292616  0.53510591  0.70310721    -0.12400
C4116       C  0.42362694  0.55307779  0.70275890     0.01100
C4117       C  0.45361543  0.50036292  0.68649432     0.40500
C4118       C  0.41314331  0.57159967  0.70565519     0.37100
C4119       C  0.47046010  0.57071853  0.66864201     0.36800
C4120       C  0.47070237  0.59771311  0.74852852     0.37600
N4121       N  0.46270823  0.48762475  0.67943118    -0.43200
N4122       N  0.40480747  0.58651732  0.70785066    -0.43700
N4123       N  0.46933257  0.59990863  0.76554694    -0.41000
N4124       N  0.47033431  0.56486670  0.65246878    -0.42500
H4125       H  0.49481760  0.59765372  0.68287056     0.13700
H4126       H  0.44728030  0.57298042  0.73304295     0.10200
H4127       H  0.46911026  0.53464674  0.69207526     0.11200
H4128       H  0.39719041  0.53566965  0.70618384     0.17100
C4129       C  0.48168304  0.64332483  0.76283549    -0.01200
C4130       C  0.49490776  0.63848222  0.77857018     0.07400
C4131       C  0.51343940  0.63044363  0.77366690    -0.07100
C4132       C  0.51787899  0.62505428  0.75396668     0.04900
C4133       C  0.50270291  0.62540173  0.73898626    -0.14400
C4134       C  0.48577736  0.63711060  0.74331422    -0.07700
C4135       C  0.48918794  0.64052443  0.80006476     0.05800
C4136       C  0.47252270  0.63015527  0.80710483    -0.08800
C4137       C  0.46676514  0.63097190  0.82716479     0.00800
C4138       C  0.47762253  0.64265991  0.84085533     0.00700
C4139       C  0.49446860  0.65285814  0.83382759    -0.12400
C4140       C  0.50030560  0.65184244  0.81377150     0.01100
C4141       C  0.44984639  0.61933102  0.83319433     0.40500
C4142       C  0.51738389  0.66310314  0.80751237     0.37100
C4143       C  0.46333041  0.65371599  0.76653924     0.36800
C4144       C  0.53840274  0.62087955  0.74971899     0.37600
N4145       N  0.43633654  0.60988800  0.83796161    -0.43200
N4146       N  0.53110892  0.67210373  0.80253049    -0.43700
N4147       N  0.55495727  0.61786555  0.74646641    -0.41000
N4148       N  0.44863153  0.66204691  0.76957153    -0.42500
H4149       H  0.47471457  0.63976776  0.73179304     0.13700
H4150       H  0.52447327  0.62813384  0.78532165     0.10200
H4151       H  0.46393165  0.62120622  0.79688562     0.11200
H4152       H  0.50298636  0.66204092  0.84395231     0.17100
C4153       C  0.69696466  0.49939263  0.66039694    -0.01200
C4154       C  0.67723904  0.50584921  0.65684521     0.07400
C4155       C  0.67173925  0.50978950  0.63700399    -0.07100
C4156       C  0.68426535  0.50565259  0.62095537     0.04900
C4157       C  0.70437675  0.49921951  0.62417378    -0.14400
C4158       C  0.71034341  0.49729481  0.64446125    -0.07700
C4159       C  0.66201664  0.50862853  0.67317686     0.05800
C4160       C  0.66712787  0.51808816  0.69113665    -0.08800
C4161       C  0.65356336  0.52019741  0.70694440     0.00800
C4162       C  0.63351277  0.51365447  0.70474530     0.00700
C4163       C  0.62808062  0.50659995  0.68561599    -0.12400
C4164       C  0.64203340  0.50272321  0.67074653     0.01100
C4165       C  0.66098784  0.53033708  0.72429839     0.40500
C4166       C  0.63553452  0.49101591  0.65396020     0.37100
C4167       C  0.70395200  0.49421891  0.68019263     0.36800
C4168       C  0.67513701  0.50812936  0.60155003     0.37600
N4169       N  0.66744437  0.53876108  0.73784549    -0.43200
N4170       N  0.63032336  0.48153056  0.64060107    -0.43700
N4171       N  0.66651988  0.51044261  0.58670554    -0.41000
N4172       N  0.70963661  0.49002920  0.69602754    -0.42500
H4173       H  0.72552551  0.49397906  0.64838097     0.13700
H4174       H  0.65713677  0.51589241  0.63383273     0.10200
H4175       H  0.68192537  0.52406521  0.69288771     0.11200
H4176       H  0.61287775  0.50209238  0.68294893     0.17100
C4177       C  0.57838921  0.47434894  0.73717616    -0.01200
C4178       C  0.58232752  0.45808141  0.72452415     0.07400
C4179       C  0.60038591  0.45792156  0.71441758    -0.07100
C4180       C  0.61340743  0.47421237  0.71518402     0.04900
C4181       C  0.60725840  0.49256817  0.72413116    -0.14400
C4182       C  0.59065866  0.49116514  0.73686260    -0.07700
C4183       C  0.56704454  0.44231911  0.72050649     0.05800
C4184       C  0.54779869  0.44863422  0.71604419    -0.08800
C4185       C  0.53193106  0.43533651  0.71509535     0.00800
C4186       C  0.53522473  0.41413587  0.71543899     0.00700
C4187       C  0.55527719  0.40798952  0.71802933    -0.12400
C4188       C  0.57081161  0.42161343  0.72124854     0.01100
C4189       C  0.51303884  0.44517295  0.71641702     0.40500
C4190       C  0.59011568  0.41384354  0.72661348     0.37100
C4191       C  0.56144416  0.47451042  0.75021326     0.36800
C4192       C  0.63314192  0.47035302  0.70799019     0.37600
N4193       N  0.49863907  0.45445567  0.71752379    -0.43200
N4194       N  0.60556955  0.40759025  0.73100172    -0.43700
N4195       N  0.64889410  0.46667547  0.70235008    -0.41000
N4196       N  0.54782987  0.47468011  0.76059340    -0.42500
H4197       H  0.58623547  0.50399784  0.74547170     0.13700
H4198       H  0.60432893  0.44508190  0.70558036     0.10200
H4199       H  0.54484489  0.46454000  0.71481806     0.11200
H4200       H  0.55872369  0.39224529  0.71873537     0.17100
C4201       C  0.56528883  0.53595551  0.70405899    -0.01200
C4202       C  0.56873050  0.55660162  0.70512506     0.07400
C4203       C  0.58833394  0.56321565  0.70595099    -0.07100
C4204       C  0.60418453  0.54973730  0.70856474     0.04900
C4205       C  0.60050727  0.52884004  0.71129861    -0.14400
C4206       C  0.58111390  0.52241403  0.70619571    -0.07700
C4207       C  0.55222319  0.57130817  0.70763771     0.05800
C4208       C  0.54054172  0.56991205  0.72470105    -0.08800
C4209       C  0.52538566  0.58370939  0.72854074     0.00800
C4210       C  0.52176836  0.60035243  0.71539302     0.00700
C4211       C  0.53336280  0.60090777  0.69772511    -0.12400
C4212       C  0.54842865  0.58692718  0.69399263     0.01100
C4213       C  0.51468066  0.58028387  0.74676229     0.40500
C4214       C  0.55917989  0.58836130  0.67551202     0.37100
C4215       C  0.54549120  0.52828159  0.70143215     0.36800
C4216       C  0.62348872  0.55855210  0.71094987     0.37600
N4217       N  0.50720510  0.57683034  0.76187241    -0.43200
N4218       N  0.56772121  0.58948228  0.66064971    -0.43700
N4219       N  0.63844099  0.56674124  0.71275603    -0.41000
N4220       N  0.52961179  0.52213395  0.69942590    -0.42500
H4221       H  0.57776345  0.50676166  0.70471113     0.13700
H4222       H  0.59118222  0.57912983  0.70601776     0.10200
H4223       H  0.54343790  0.55788155  0.73530755     0.11200
H4224       H  0.53029575  0.61170097  0.68601712     0.17100
C4225       C  0.61528977  0.54311765  0.77121537    -0.01200
C4226       C  0.62981020  0.53350340  0.78290806     0.07400
C4227       C  0.63973669  0.51707969  0.77492425    -0.07100
C4228       C  0.63597911  0.51064696  0.75528203     0.04900
C4229       C  0.62230677  0.52115811  0.74251376    -0.14400
C4230       C  0.61140036  0.53673131  0.75180227    -0.07700
C4231       C  0.63379829  0.53975790  0.80388068     0.05800
C4232       C  0.62776106  0.52739621  0.81970516    -0.08800
C4233       C  0.63022536  0.53324983  0.83963975     0.00800
C4234       C  0.63890604  0.55188082  0.84409466     0.00700
C4235       C  0.64477145  0.56430186  0.82816308    -0.12400
C4236       C  0.64246046  0.55834594  0.80826121     0.01100
C4237       C  0.62308907  0.52011974  0.85516776     0.40500
C4238       C  0.64957456  0.57129631  0.79254867     0.37100
C4239       C  0.60332330  0.55903841  0.77919455     0.36800
C4240       C  0.64648359  0.49301479  0.74920087     0.37600
N4241       N  0.61729481  0.50961020  0.86760181    -0.43200
N4242       N  0.65531577  0.58160160  0.77991886    -0.43700
N4243       N  0.65544807  0.47882302  0.74545121    -0.41000
N4244       N  0.59372657  0.57179144  0.78552796    -0.42500
H4245       H  0.59874740  0.54367763  0.74467020     0.13700
H4246       H  0.65045290  0.50910842  0.78419721     0.10200
H4247       H  0.62080698  0.51323236  0.81644429     0.11200
H4248       H  0.65172317  0.57850308  0.83125809     0.17100
C4249       C  0.70023420  0.66363170  0.50741793    -0.01200
C4250       C  0.68058733  0.65995303  0.50095608     0.07400
C4251       C  0.67554194  0.64002106  0.49724037    -0.07100
C4252       C  0.68882917  0.62418356  0.50101860     0.04900
C4253       C  0.70921496  0.62788270  0.50568978    -0.14400
C4254       C  0.71438681  0.64824205  0.50777618    -0.07700
C4255       C  0.66548923  0.67653344  0.49755851     0.05800
C4256       C  0.67161729  0.69508157  0.48986863    -0.08800
C4257       C  0.65888270  0.71170377  0.48887591     0.00800
C4258       C  0.63795243  0.70925711  0.49107499     0.00700
C4259       C  0.63173138  0.68994722  0.49738193    -0.12400
C4260       C  0.64514428  0.67448491  0.50205359     0.01100
C4261       C  0.66883890  0.73066837  0.48808003     0.40500
C4262       C  0.63757907  0.65738554  0.51278623     0.37100
C4263       C  0.70628441  0.68277428  0.51500930     0.36800
C4264       C  0.68045914  0.60446269  0.49993853     0.37600
N4265       N  0.67755379  0.74550706  0.48789180    -0.43200
N4266       N  0.63151553  0.64378509  0.52155082    -0.43700
N4267       N  0.67268369  0.58914018  0.49913956    -0.41000
N4268       N  0.71111349  0.69803476  0.52127161    -0.42500
H4269       H  0.72948623  0.65274195  0.51026079     0.13700
H4270       H  0.66091524  0.63655054  0.49154390     0.10200
H4271       H  0.68692497  0.69711891  0.48563604     0.11200
H4272       H  0.61611271  0.68719455  0.49980262     0.17100
C4273       C  0.62692208  0.78303332  0.49871387    -0.01200
C4274       C  0.63397515  0.79015534  0.48028900     0.07400
C4275       C  0.63972029  0.77628223  0.46598427    -0.07100
C4276       C  0.63749421  0.75568077  0.46920612     0.04900
C4277       C  0.62956492  0.74805500  0.48755047    -0.14400
C4278       C  0.62510307  0.76245073  0.50229635    -0.07700
C4279       C  0.63574165  0.81199193  0.47571355     0.05800
C4280       C  0.64845923  0.82362904  0.48736632    -0.08800
C4281       C  0.65151807  0.84389353  0.48298053     0.00800
C4282       C  0.64169388  0.85313076  0.46645585     0.00700
C4283       C  0.62854515  0.84149436  0.45509147    -0.12400
C4284       C  0.62548352  0.82119273  0.45959722     0.01100
C4285       C  0.66558891  0.85440001  0.49529261     0.40500
C4286       C  0.61158847  0.81011770  0.44758908     0.37100
C4287       C  0.62002783  0.79663151  0.51374144     0.36800
C4288       C  0.64304207  0.74287834  0.45293774     0.37600
N4289       N  0.67693613  0.86270693  0.50518003    -0.43200
N4290       N  0.60044845  0.80119560  0.43801486    -0.43700
N4291       N  0.64775219  0.73287986  0.43982515    -0.41000
N4292       N  0.61436232  0.80750976  0.52572327    -0.42500
H4293       H  0.61891242  0.75812749  0.51646812     0.13700
H4294       H  0.64561246  0.78164630  0.45191593     0.10200
H4295       H  0.65647313  0.81667589  0.49970809     0.11200
H4296       H  0.62080195  0.84817770  0.44244688     0.17100
C4297       C  0.54547325  0.70919501  0.43078780    -0.01200
C4298       C  0.56249766  0.71904602  0.42410605     0.07400
C4299       C  0.56203128  0.72849225  0.40540138    -0.07100
C4300       C  0.54440102  0.72959285  0.39406228     0.04900
C4301       C  0.52614420  0.72251232  0.40217173    -0.14400
C4302       C  0.52777273  0.71074429  0.41988307    -0.07700
C4303       C  0.57966240  0.72180671  0.43785523     0.05800
C4304       C  0.59378373  0.70669968  0.44059612    -0.08800
C4305       C  0.60833630  0.70774596  0.45576062     0.00800
C4306       C  0.60778985  0.72354088  0.47011144     0.00700
C4307       C  0.59430625  0.73942073  0.46559744    -0.12400
C4308       C  0.58071307  0.73874592  0.44982481     0.01100
C4309       C  0.62397086  0.69311593  0.45441732     0.40500
C4310       C  0.56747724  0.75547094  0.44653547     0.37100
C4311       C  0.54569685  0.69792460  0.44927575     0.36800
C4312       C  0.54565819  0.73932926  0.37483143     0.37600
N4313       N  0.63642758  0.68137627  0.45255107    -0.43200
N4314       N  0.55695937  0.76888683  0.44366868    -0.43700
N4315       N  0.54753403  0.74741933  0.35963569    -0.41000
N4316       N  0.54603820  0.68885490  0.46405820    -0.42500
H4317       H  0.51514782  0.70269993  0.42563340     0.13700
H4318       H  0.57536961  0.73559611  0.39992403     0.10200
H4319       H  0.59350798  0.69404357  0.43065089     0.11200
H4320       H  0.59373412  0.75234163  0.47515187     0.17100
C4321       C  0.50679801  0.78395355  0.39393150    -0.01200
C4322       C  0.48877972  0.78967604  0.38481553     0.07400
C4323       C  0.47690265  0.77483321  0.37648767    -0.07100
C4324       C  0.48239666  0.75458391  0.37736984     0.04900
C4325       C  0.50073015  0.74832916  0.38646716    -0.14400
C4326       C  0.51236250  0.76377025  0.39497429    -0.07700
C4327       C  0.48229732  0.81107331  0.38342829     0.05800
C4328       C  0.49443587  0.82481247  0.37350165    -0.08800
C4329       C  0.48888566  0.84488808  0.37123164     0.00800
C4330       C  0.47049897  0.85176349  0.37875624     0.00700
C4331       C  0.45842237  0.83799003  0.38893454    -0.12400
C4332       C  0.46419139  0.81789743  0.39141307     0.01100
C4333       C  0.50227582  0.85779679  0.36051749     0.40500
C4334       C  0.45146275  0.80465530  0.40254314     0.37100
C4335       C  0.51945884  0.79846528  0.40335622     0.36800
C4336       C  0.46857352  0.74086491  0.36849173     0.37600
N4337       N  0.51305508  0.86809481  0.35193442    -0.43200
N4338       N  0.44128475  0.79404753  0.41149790    -0.43700
N4339       N  0.45712803  0.73069452  0.36072040    -0.41000
N4340       N  0.52964365  0.81009429  0.41083434    -0.42500
H4341       H  0.52536578  0.76038589  0.40382564     0.13700
H4342       H  0.46308421  0.77912549  0.36922972     0.10200
H4343       H  0.50828825  0.81972440  0.36718983     0.11200
H4344       H  0.44437583  0.84288283  0.39494047     0.17100
C4345       C  0.43400764  0.70327726  0.46127898    -0.01200
C4346       C  0.44042989  0.72012326  0.45048146     0.07400
C4347       C  0.43140255  0.73851048  0.45426271    -0.07100
C4348       C  0.41827265  0.74096853  0.47016721     0.04900
C4349       C  0.41476195  0.72478305  0.48380108    -0.14400
C4350       C  0.42097384  0.70563645  0.47732760    -0.07700
C4351       C  0.45727237  0.71949771  0.43610787     0.05800
C4352       C  0.45624574  0.70787452  0.41887081    -0.08800
C4353       C  0.47135681  0.70827809  0.40441521     0.00800
C4354       C  0.48823937  0.72097738  0.40693521     0.00700
C4355       C  0.48890578  0.73218762  0.42477725    -0.12400
C4356       C  0.47414462  0.73131855  0.43916037     0.01100
C4357       C  0.46783430  0.69615947  0.38713293     0.40500
C4358       C  0.47691850  0.74269784  0.45713476     0.37100
C4359       C  0.44159181  0.68361719  0.45714086     0.36800
C4360       C  0.40840994  0.76007600  0.47083365     0.37600
N4361       N  0.46441453  0.68627229  0.37348848    -0.43200
N4362       N  0.47938385  0.75184422  0.47146634    -0.43700
N4363       N  0.40059921  0.77547823  0.47079577    -0.41000
N4364       N  0.44755753  0.66781562  0.45377330    -0.42500
H4365       H  0.41738356  0.69257609  0.48623899     0.13700
H4366       H  0.43503365  0.75124298  0.44485978     0.10200
H4367       H  0.44320541  0.69879044  0.41641061     0.11200
H4368       H  0.50136297  0.74193411  0.42760127     0.17100
C4369       C  0.39081447  0.82516365  0.52024617    -0.01200
C4370       C  0.38640712  0.80832538  0.53221394     0.07400
C4371       C  0.37959476  0.81139808  0.55169636    -0.07100
C4372       C  0.37713983  0.83077907  0.55927325     0.04900
C4373       C  0.38155382  0.84770808  0.54723735    -0.14400
C4374       C  0.38833361  0.84447425  0.52773591    -0.07700
C4375       C  0.39028686  0.78755221  0.52508583     0.05800
C4376       C  0.40979713  0.78200369  0.52118571    -0.08800
C4377       C  0.41459685  0.76296920  0.51426831     0.00800
C4378       C  0.39956487  0.74819946  0.51104041     0.00700
C4379       C  0.37985722  0.75402703  0.51546544    -0.12400
C4380       C  0.37519269  0.77339589  0.52208132     0.01100
C4381       C  0.43529295  0.75969812  0.51004137     0.40500
C4382       C  0.35470850  0.77856382  0.52532105     0.37100
C4383       C  0.39756651  0.82303858  0.50000316     0.36800
C4384       C  0.36950305  0.83271044  0.57920699     0.37600
N4385       N  0.45197489  0.75775450  0.50670187    -0.43200
N4386       N  0.33827876  0.78278278  0.52780353    -0.43700
N4387       N  0.36332377  0.83412440  0.59518402    -0.41000
N4388       N  0.40298177  0.82142281  0.48376895    -0.42500
H4389       H  0.39166150  0.85713810  0.51815433     0.13700
H4390       H  0.37633639  0.79857479  0.56109251     0.10200
H4391       H  0.42150202  0.79281492  0.52348647     0.11200
H4392       H  0.36787584  0.74347036  0.51430121     0.17100
C4393       C  0.52196583  0.69919538  0.65905494    -0.01200
C4394       C  0.51733268  0.67881436  0.65725688     0.07400
C4395       C  0.51659154  0.67089667  0.63813181    -0.07100
C4396       C  0.51924602  0.68272434  0.62093273     0.04900
C4397       C  0.52256958  0.70383871  0.62215904    -0.14400
C4398       C  0.52546662  0.71106753  0.64187318    -0.07700
C4399       C  0.51290910  0.66509417  0.67462724     0.05800
C4400       C  0.49442320  0.65558438  0.67535986    -0.08800
C4401       C  0.49018798  0.64064178  0.68965314     0.00800
C4402       C  0.50526123  0.63358508  0.70311880     0.00700
C4403       C  0.52304609  0.64484701  0.70348815    -0.12400
C4404       C  0.52707014  0.66000833  0.68940992     0.01100
C4405       C  0.46979294  0.63439144  0.69071210     0.40500
C4406       C  0.54626427  0.66940511  0.68994650     0.37100
C4407       C  0.52206868  0.70860606  0.67830537     0.36800
C4408       C  0.51828277  0.67170341  0.60267966     0.37600
N4409       N  0.45332990  0.62968319  0.69141612    -0.43200
N4410       N  0.56161092  0.67702123  0.69053415    -0.43700
N4411       N  0.51744343  0.66092539  0.58934295    -0.41000
N4412       N  0.52195548  0.71616603  0.69373735    -0.42500
H4413       H  0.53006570  0.72622590  0.64434085     0.13700
H4414       H  0.51367508  0.65506573  0.63661054     0.10200
H4415       H  0.48306256  0.66002197  0.66464124     0.11200
H4416       H  0.53451612  0.64094002  0.71421038     0.17100
C4417       C  0.46894842  0.70726310  0.58500683    -0.01200
C4418       C  0.46754232  0.71868434  0.56726124     0.07400
C4419       C  0.48283871  0.73197205  0.56293812    -0.07100
C4420       C  0.50042343  0.73218925  0.57409613     0.04900
C4421       C  0.50296092  0.71951781  0.59133784    -0.14400
C4422       C  0.48614574  0.70820692  0.59708024    -0.07700
C4423       C  0.45110492  0.71663058  0.55217565     0.05800
C4424       C  0.43130982  0.72003568  0.55743332    -0.08800
C4425       C  0.41612798  0.72125471  0.54286578     0.00800
C4426       C  0.42050284  0.71961423  0.52205492     0.00700
C4427       C  0.44041843  0.71479730  0.51743565    -0.12400
C4428       C  0.45531694  0.71319545  0.53192980     0.01100
C4429       C  0.39632025  0.72511917  0.54988352     0.40500
C4430       C  0.47517828  0.70922274  0.52504341     0.37100
C4431       C  0.45335710  0.69375734  0.59071548     0.36800
C4432       C  0.51588121  0.74449725  0.56582795     0.37600
N4433       N  0.38050744  0.72809207  0.55573327    -0.43200
N4434       N  0.49089629  0.70633646  0.51891548    -0.43700
N4435       N  0.52765467  0.75453295  0.55833586    -0.41000
N4436       N  0.44083782  0.68293596  0.59529293    -0.42500
H4437       H  0.48629475  0.69949337  0.61070057     0.13700
H4438       H  0.48150828  0.74151527  0.54980217     0.10200
H4439       H  0.42776702  0.72265222  0.57293650     0.11200
H4440       H  0.44551952  0.71403925  0.50231731     0.17100
C4441       C  0.57552364  0.71385805  0.58179618    -0.01200
C4442       C  0.57180011  0.70922368  0.56147381     0.07400
C4443       C  0.55388883  0.69955443  0.55734945    -0.07100
C4444       C  0.53771386  0.70123795  0.57011111     0.04900
C4445       C  0.54025220  0.70978494  0.58943563    -0.14400
C4446       C  0.56019091  0.71173963  0.59592300    -0.07700
C4447       C  0.58466051  0.71527620  0.54391595     0.05800
C4448       C  0.60548836  0.71517306  0.54500993    -0.08800
C4449       C  0.61722880  0.72067020  0.52851457     0.00800
C4450       C  0.60855591  0.72360110  0.50907768     0.00700
C4451       C  0.58761400  0.72322653  0.50832854    -0.12400
C4452       C  0.57599954  0.72097579  0.52533491     0.01100
C4453       C  0.63823052  0.72279924  0.53222184     0.40500
C4454       C  0.55507187  0.72528759  0.52291362     0.37100
C4455       C  0.59359529  0.72318820  0.58841419     0.36800
C4456       C  0.51927713  0.69370824  0.56228572     0.37600
N4457       N  0.65499549  0.72446408  0.53552852    -0.43200
N4458       N  0.53837144  0.72870027  0.52069876    -0.43700
N4459       N  0.50480629  0.68712189  0.55580516    -0.41000
N4460       N  0.60795049  0.73080330  0.59395556    -0.42500
H4461       H  0.56307738  0.71606740  0.61121596     0.13700
H4462       H  0.55175074  0.69258201  0.54296838     0.10200
H4463       H  0.61290108  0.71067616  0.55868383     0.11200
H4464       H  0.57946475  0.72491801  0.49463872     0.17100
C4465       C  0.54764274  0.77160840  0.60440099    -0.01200
C4466       C  0.53563955  0.78223473  0.61757014     0.07400
C4467       C  0.51891702  0.77265522  0.62544125    -0.07100
C4468       C  0.51465817  0.75250646  0.62106153     0.04900
C4469       C  0.52763709  0.74092258  0.60890215    -0.14400
C4470       C  0.54352749  0.75173868  0.60015272    -0.07700
C4471       C  0.54028210  0.80350544  0.62232680     0.05800
C4472       C  0.52715276  0.81880191  0.61635299    -0.08800
C4473       C  0.53237779  0.83902557  0.61825943     0.00800
C4474       C  0.55132115  0.84423756  0.62579682     0.00700
C4475       C  0.56416713  0.82887783  0.63216740    -0.12400
C4476       C  0.55867948  0.80880247  0.63092720     0.01100
C4477       C  0.51821331  0.85403073  0.61190595     0.40500
C4478       C  0.57212964  0.79384553  0.63885381     0.37100
C4479       C  0.56386809  0.78108531  0.59402175     0.36800
C4480       C  0.49672295  0.74428011  0.62931245     0.37600
N4481       N  0.50678398  0.86602114  0.60688641    -0.43200
N4482       N  0.58290269  0.78187095  0.64522948    -0.43700
N4483       N  0.48242073  0.73776728  0.63615682    -0.41000
N4484       N  0.57692319  0.78857230  0.58577921    -0.42500
H4485       H  0.55215860  0.74571091  0.58827145     0.13700
H4486       H  0.50911961  0.78095507  0.63507144     0.10200
H4487       H  0.51297917  0.81493237  0.60975162     0.11200
H4488       H  0.57843117  0.83257154  0.63868655     0.17100
C4489       C  0.52585514  0.31619786  0.65706278    -0.01200
C4490       C  0.51192957  0.33137250  0.66047066     0.07400
C4491       C  0.49399050  0.33105791  0.64972984    -0.07100
C4492       C  0.49039518  0.31687625  0.63472657     0.04900
C4493       C  0.50556214  0.30314452  0.62922999    -0.14400
C4494       C  0.52237334  0.30210406  0.64211856    -0.07700
C4495       C  0.51546605  0.34724149  0.67566200     0.05800
C4496       C  0.52716440  0.36380760  0.67082845    -0.08800
C4497       C  0.52971860  0.37977173  0.68415973     0.00800
C4498       C  0.52056363  0.37935131  0.70336985     0.00700
C4499       C  0.50880961  0.36235871  0.70775709    -0.12400
C4500       C  0.50669967  0.34640057  0.69455488     0.01100
C4501       C  0.54045592  0.39674310  0.67653370     0.40500
C4502       C  0.49558086  0.32912422  0.70082102     0.37100
C4503       C  0.54392973  0.31485300  0.66866748     0.36800
C4504       C  0.47045085  0.31594484  0.62694304     0.37600
N4505       N  0.54893443  0.41028793  0.67006095    -0.43200
N4506       N  0.48686782  0.31516132  0.70589655    -0.43700
N4507       N  0.45430353  0.31525860  0.62104938    -0.41000
N4508       N  0.55839933  0.31373710  0.67799789    -0.42500
H4509       H  0.53365562  0.29091711  0.63956277     0.13700
H4510       H  0.48258532  0.34186165  0.65328870     0.10200
H4511       H  0.53383432  0.36457336  0.65617172     0.11200
H4512       H  0.50122302  0.36141196  0.72186791     0.17100
C4513       C  0.48152050  0.24271949  0.63574977    -0.01200
C4514       C  0.49469994  0.22709083  0.63109720     0.07400
C4515       C  0.51366512  0.23219727  0.62426884    -0.07100
C4516       C  0.51887337  0.25214899  0.62037606     0.04900
C4517       C  0.50412449  0.26740698  0.62090737    -0.14400
C4518       C  0.48646427  0.26253711  0.63112390    -0.07700
C4519       C  0.48896036  0.20553998  0.63332827     0.05800
C4520       C  0.47177791  0.19859665  0.62363289    -0.08800
C4521       C  0.46558033  0.17865546  0.62560324     0.00800
C4522       C  0.47677830  0.16495560  0.63737318     0.00700
C4523       C  0.49428012  0.17184306  0.64657017    -0.12400
C4524       C  0.50034781  0.19178927  0.64473378     0.01100
C4525       C  0.44773823  0.17276475  0.61525935     0.40500
C4526       C  0.51797251  0.19789308  0.65533845     0.37100
C4527       C  0.46264847  0.23883618  0.64496599     0.36800
C4528       C  0.53965040  0.25623191  0.61758148     0.37600
N4529       N  0.43343610  0.16805343  0.60695007    -0.43200
N4530       N  0.53215421  0.20281847  0.66372398    -0.43700
N4531       N  0.55639144  0.25930633  0.61563815    -0.41000
N4532       N  0.44751738  0.23577245  0.65236570    -0.42500
H4533       H  0.47552990  0.27407988  0.63368056     0.13700
H4534       H  0.52454162  0.22053636  0.62192211     0.10200
H4535       H  0.46310693  0.20886125  0.61445686     0.11200
H4536       H  0.50310642  0.16171870  0.65574162     0.17100
C4537       C  0.45031757  0.30148213  0.52736695    -0.01200
C4538       C  0.44383952  0.29621729  0.54657020     0.07400
C4539       C  0.42411564  0.28999456  0.54870842    -0.07100
C4540       C  0.41105223  0.28877629  0.53225145     0.04900
C4541       C  0.41700705  0.29505421  0.51269724    -0.14400
C4542       C  0.43730074  0.30060669  0.51098957    -0.07700
C4543       C  0.45801722  0.29490958  0.56400345     0.05800
C4544       C  0.46950339  0.31142877  0.56954080    -0.08800
C4545       C  0.48426913  0.30999380  0.58455406     0.00800
C4546       C  0.48749935  0.29176617  0.59542556     0.00700
C4547       C  0.47554634  0.27538407  0.58943436    -0.12400
C4548       C  0.46131162  0.27675943  0.57417971     0.01100
C4549       C  0.49586324  0.32765202  0.58815515     0.40500
C4550       C  0.45138632  0.25868639  0.56819531     0.37100
C4551       C  0.47076950  0.30656745  0.52367665     0.36800
C4552       C  0.39154655  0.28089315  0.53615047     0.37600
N4553       N  0.50489036  0.34204257  0.59076838    -0.43200
N4554       N  0.44349373  0.24420518  0.56337732    -0.43700
N4555       N  0.37596680  0.27459588  0.53948377    -0.41000
N4556       N  0.48710915  0.31068753  0.52063258    -0.42500
H4557       H  0.44413850  0.30286273  0.49676765     0.13700
H4558       H  0.41899560  0.28549395  0.56336415     0.10200
H4559       H  0.46726153  0.32549707  0.56169140     0.11200
H4560       H  0.47807738  0.26056155  0.59528917     0.17100
C4561       C  0.37538199  0.19520477  0.49356860    -0.01200
C4562       C  0.37804257  0.21092753  0.47979619     0.07400
C4563       C  0.37820452  0.20664276  0.45933580    -0.07100
C4564       C  0.37614451  0.18699538  0.45250918     0.04900
C4565       C  0.37412074  0.17104457  0.46634820    -0.14400
C4566       C  0.37345539  0.17555512  0.48682820    -0.07700
C4567       C  0.38307228  0.23147288  0.48640391     0.05800
C4568       C  0.40295049  0.23580067  0.48999083    -0.08800
C4569       C  0.40930723  0.25536254  0.49319592     0.00800
C4570       C  0.39542284  0.27166767  0.49303994     0.00700
C4571       C  0.37507240  0.26661416  0.49146054    -0.12400
C4572       C  0.36895264  0.24688711  0.48783349     0.01100
C4573       C  0.43051658  0.25797848  0.49439258     0.40500
C4574       C  0.34813082  0.24282030  0.48519680     0.37100
C4575       C  0.37460388  0.19892734  0.51470619     0.36800
C4576       C  0.37553209  0.18383511  0.43125092     0.37600
N4577       N  0.44758933  0.25941874  0.49513390    -0.43200
N4578       N  0.33142994  0.23951947  0.48312920    -0.43700
N4579       N  0.37490398  0.18140460  0.41419357    -0.41000
N4580       N  0.37385797  0.20193426  0.53164586    -0.42500
H4581       H  0.37157268  0.16365375  0.49771775     0.13700
H4582       H  0.38018555  0.21868171  0.44863918     0.10200
H4583       H  0.41380098  0.22385336  0.48913974     0.11200
H4584       H  0.36374397  0.27797849  0.49233981     0.17100
C4585       C  0.46515183  0.31726642  0.41642343    -0.01200
C4586       C  0.46270316  0.30700047  0.43452113     0.07400
C4587       C  0.47712293  0.29322902  0.44073916    -0.07100
C4588       C  0.49329334  0.28855281  0.42872812     0.04900
C4589       C  0.49568622  0.29801128  0.40965536    -0.14400
C4590       C  0.48165362  0.31321518  0.40455745    -0.07700
C4591       C  0.44380226  0.30716178  0.44556049     0.05800
C4592       C  0.43197801  0.29033530  0.44383648    -0.08800
C4593       C  0.41683860  0.28648264  0.45729538     0.00800
C4594       C  0.41392743  0.29940961  0.47398595     0.00700
C4595       C  0.42277195  0.31852948  0.47242801    -0.12400
C4596       C  0.43839449  0.32206544  0.45908405     0.01100
C4597       C  0.40432719  0.26992284  0.45197793     0.40500
C4598       C  0.44979098  0.34010962  0.46085066     0.37100
C4599       C  0.45053178  0.33150318  0.40934403     0.36800
C4600       C  0.50593644  0.27255745  0.43591701     0.37600
N4601       N  0.39452895  0.25681199  0.44678456    -0.43200
N4602       N  0.45897303  0.35455717  0.46236858    -0.43700
N4603       N  0.51547392  0.25933782  0.44178992    -0.41000
N4604       N  0.43881748  0.34287738  0.40359514    -0.42500
H4605       H  0.48314368  0.32230717  0.39132011     0.13700
H4606       H  0.47503582  0.28512332  0.45466625     0.10200
H4607       H  0.43516647  0.27965904  0.43221099     0.11200
H4608       H  0.41957048  0.32961961  0.48361646     0.17100
C4609       C  0.51997896  0.19538984  0.36883484    -0.01200
C4610       C  0.53091130  0.20993853  0.37912360     0.07400
C4611       C  0.54848625  0.20423974  0.38906268    -0.07100
C4612       C  0.55565577  0.18458551  0.38821337     0.04900
C4613       C  0.54516659  0.17015422  0.37713907    -0.14400
C4614       C  0.52712773  0.17578774  0.36792419    -0.07700
C4615       C  0.52428863  0.23113980  0.37988447     0.05800
C4616       C  0.50631552  0.23587506  0.38899820    -0.08800
C4617       C  0.50076287  0.25574712  0.39231540     0.00800
C4618       C  0.51417058  0.27154473  0.38754182     0.00700
C4619       C  0.53026325  0.26655706  0.37501485    -0.12400
C4620       C  0.53583408  0.24669738  0.37195706     0.01100
C4621       C  0.48084847  0.25875857  0.39940375     0.40500
C4622       C  0.55415998  0.24270644  0.36175104     0.37100
C4623       C  0.50173141  0.20034884  0.35849904     0.36800
C4624       C  0.57356160  0.17967634  0.39914210     0.37600
N4625       N  0.46470993  0.26072916  0.40478440    -0.43200
N4626       N  0.56896072  0.23950666  0.35378138    -0.43700
N4627       N  0.58785975  0.17579375  0.40802973    -0.41000
N4628       N  0.48706588  0.20430676  0.35028717    -0.42500
H4629       H  0.51877942  0.16498173  0.35940450     0.13700
H4630       H  0.55667091  0.21525744  0.39748611     0.10200
H4631       H  0.49669812  0.22390137  0.39393055     0.11200
H4632       H  0.54014337  0.27820981  0.36987558     0.17100
C4633       C  0.64512281  0.34150717  0.50784435    -0.01200
C4634       C  0.66510561  0.33566867  0.50586043     0.07400
C4635       C  0.66968453  0.31529660  0.50838273    -0.07100
C4636       C  0.65488171  0.30093396  0.51207983     0.04900
C4637       C  0.63441226  0.30636117  0.51064981    -0.14400
C4638       C  0.63027319  0.32711931  0.50950090    -0.07700
C4639       C  0.68102701  0.35066999  0.50103494     0.05800
C4640       C  0.67750985  0.36497190  0.48593301    -0.08800
C4641       C  0.69023703  0.38123433  0.48279890     0.00800
C4642       C  0.70901404  0.38208763  0.49281942     0.00700
C4643       C  0.71268031  0.36691836  0.50736531    -0.12400
C4644       C  0.69895136  0.35189141  0.51187258     0.01100
C4645       C  0.68170003  0.39760041  0.47147575     0.40500
C4646       C  0.70317479  0.33886394  0.52867604     0.37100
C4647       C  0.63929525  0.36224905  0.50854844     0.36800
C4648       C  0.66182122  0.28163827  0.51883012     0.37600
N4649       N  0.67427071  0.41059440  0.46265761    -0.43200
N4650       N  0.70657690  0.32850594  0.54220523    -0.43700
N4651       N  0.66795691  0.26646784  0.52458866    -0.41000
N4652       N  0.63462911  0.37885534  0.50917863    -0.42500
H4653       H  0.61505028  0.33228218  0.50936745     0.13700
H4654       H  0.68501296  0.31049875  0.50772251     0.10200
H4655       H  0.66380177  0.36427723  0.47740902     0.11200
H4656       H  0.72626807  0.36724968  0.51599554     0.17100
C4657       C  0.57138902  0.28600392  0.47519262    -0.01200
C4658       C  0.57596075  0.29773254  0.45838364     0.07400
C4659       C  0.59464355  0.30654292  0.45721316    -0.07100
C4660       C  0.60862652  0.30444683  0.47278778     0.04900
C4661       C  0.60366075  0.29361559  0.49063898    -0.14400
C4662       C  0.58530485  0.28341078  0.49045457    -0.07700
C4663       C  0.56257655  0.29809090  0.44069035     0.05800
C4664       C  0.55070250  0.31476206  0.43627374    -0.08800
C4665       C  0.53596656  0.31412516  0.42124414     0.00800
C4666       C  0.53277482  0.29635434  0.40996869     0.00700
C4667       C  0.54578312  0.28007946  0.41456898    -0.12400
C4668       C  0.56043084  0.28093455  0.42924960     0.01100
C4669       C  0.52371848  0.33170140  0.41872694     0.40500
C4670       C  0.57233104  0.26330183  0.43324389     0.37100
C4671       C  0.55226608  0.27671226  0.47744827     0.36800
C4672       C  0.62805700  0.31220882  0.46851062     0.37600
N4673       N  0.51408410  0.34592385  0.41682473    -0.43200
N4674       N  0.58176984  0.24918768  0.43655764    -0.43700
N4675       N  0.64350378  0.31839230  0.46440339    -0.41000
N4676       N  0.53700201  0.26926722  0.47967695    -0.42500
H4677       H  0.58107293  0.27441774  0.50323684     0.13700
H4678       H  0.59857075  0.31454538  0.44366487     0.10200
H4679       H  0.55237746  0.32805656  0.44519063     0.11200
H4680       H  0.54386004  0.26549692  0.40843348     0.17100
C4681       C  0.56983543  0.31065813  0.53921825    -0.01200
C4682       C  0.57404516  0.30349687  0.55851947     0.07400
C4683       C  0.59366620  0.29864966  0.56362355    -0.07100
C4684       C  0.60832507  0.29778027  0.54885025     0.04900
C4685       C  0.60284506  0.30025321  0.52836048    -0.14400
C4686       C  0.58440119  0.30986220  0.52462410    -0.07700
C4687       C  0.55776574  0.29946087  0.57269705     0.05800
C4688       C  0.54526741  0.28332073  0.56901790    -0.08800
C4689       C  0.52866605  0.27953812  0.58087689     0.00800
C4690       C  0.52428650  0.29188656  0.59757512     0.00700
C4691       C  0.53697317  0.30859147  0.60043216    -0.12400
C4692       C  0.55352452  0.31219227  0.58848653     0.01100
C4693       C  0.51699220  0.26238587  0.57551500     0.40500
C4694       C  0.56541562  0.32967012  0.59207257     0.37100
C4695       C  0.55033292  0.31794297  0.53380741     0.36800
C4696       C  0.62810442  0.29217195  0.55505561     0.37600
N4697       N  0.50819675  0.24835467  0.57093109    -0.43200
N4698       N  0.57494047  0.34368680  0.59488911    -0.43700
N4699       N  0.64382679  0.28781828  0.56061165    -0.41000
N4700       N  0.53468313  0.32372079  0.52949616    -0.42500
H4701       H  0.58063436  0.31572681  0.50997935     0.13700
H4702       H  0.59726490  0.29439085  0.57888237     0.10200
H4703       H  0.54841555  0.27369679  0.55651057     0.11200
H4704       H  0.53374472  0.31981181  0.61135297     0.17100
C4705       C  0.61167292  0.23738021  0.53117302    -0.01200
C4706       C  0.62474980  0.22660811  0.51923369     0.07400
C4707       C  0.63374144  0.23648240  0.50317502    -0.07100
C4708       C  0.63089669  0.25715500  0.49980621     0.04900
C4709       C  0.61982491  0.26894836  0.51352926    -0.14400
C4710       C  0.60914087  0.25786612  0.52813821    -0.07700
C4711       C  0.62906604  0.20515606  0.52381480     0.05800
C4712       C  0.62136536  0.19011799  0.51157826    -0.08800
C4713       C  0.62359272  0.16981753  0.51684917     0.00800
C4714       C  0.63351635  0.16432513  0.53477356     0.00700
C4715       C  0.64116190  0.17944900  0.54691318    -0.12400
C4716       C  0.63925079  0.19960138  0.54149679     0.01100
C4717       C  0.61484743  0.15500019  0.50408546     0.40500
C4718       C  0.64818739  0.21439666  0.55417823     0.37100
C4719       C  0.59994815  0.22748735  0.54625264     0.36800
C4720       C  0.63970477  0.26547557  0.48206244     0.37600
N4721       N  0.60773199  0.14314354  0.49389097    -0.43200
N4722       N  0.65540240  0.22627173  0.56427508    -0.43700
N4723       N  0.64711378  0.27133374  0.46765511    -0.41000
N4724       N  0.59050064  0.21951946  0.55823376    -0.42500
H4725       H  0.59765441  0.26462814  0.53688709     0.13700
H4726       H  0.64310920  0.22801535  0.49325190     0.10200
H4727       H  0.61323941  0.19426217  0.49813442     0.11200
H4728       H  0.64922046  0.17549401  0.56046092     0.17100
C4729       C  0.37179390  0.67873125  0.51326135    -0.01200
C4730       C  0.35772624  0.68033669  0.49760036     0.07400
C4731       C  0.35780519  0.69785052  0.48598572    -0.07100
C4732       C  0.37172648  0.71312691  0.48907510     0.04900
C4733       C  0.38685806  0.71129463  0.50407197    -0.14400
C4734       C  0.38629379  0.69358081  0.51593127    -0.07700
C4735       C  0.34227030  0.66457661  0.49340845     0.05800
C4736       C  0.32229647  0.67026236  0.49185430    -0.08800
C4737       C  0.30705748  0.65643930  0.48809830     0.00800
C4738       C  0.31140988  0.63555081  0.48627313     0.00700
C4739       C  0.33176610  0.63021135  0.48753290    -0.12400
C4740       C  0.34694028  0.64431456  0.49026166     0.01100
C4741       C  0.28736242  0.66487509  0.48753936     0.40500
C4742       C  0.36723356  0.63762511  0.48888002     0.37100
C4743       C  0.37144145  0.66222957  0.52728039     0.36800
C4744       C  0.36990011  0.73027807  0.47602410     0.37600
N4745       N  0.27183070  0.67227094  0.48725263    -0.43200
N4746       N  0.38348332  0.63223835  0.48763567    -0.43700
N4747       N  0.36744879  0.74373063  0.46532461    -0.41000
N4748       N  0.37122370  0.64906072  0.53858044    -0.42500
H4749       H  0.39742581  0.69066252  0.52724118     0.13700
H4750       H  0.34690763  0.69956029  0.47409481     0.10200
H4751       H  0.31846653  0.68582727  0.49394688     0.11200
H4752       H  0.33592896  0.61464367  0.48633632     0.17100
C4753       C  0.23847180  0.62190755  0.49261361    -0.01200
C4754       C  0.23226861  0.62869824  0.47370744     0.07400
C4755       C  0.24655306  0.63453423  0.45987163    -0.07100
C4756       C  0.26688648  0.63282188  0.46424141     0.04900
C4757       C  0.27365863  0.62474631  0.48298527    -0.14400
C4758       C  0.25871545  0.61996779  0.49706353    -0.07700
C4759       C  0.21090655  0.62930854  0.46799376     0.05800
C4760       C  0.19889088  0.64453483  0.47540501    -0.08800
C4761       C  0.17865340  0.64548911  0.47061593     0.00800
C4762       C  0.17000527  0.63095322  0.45804775     0.00700
C4763       C  0.18214034  0.61573541  0.45058302    -0.12400
C4764       C  0.20236118  0.61468168  0.45567085     0.01100
C4765       C  0.16737859  0.66209247  0.47817737     0.40500
C4766       C  0.21392328  0.59803367  0.44876428     0.37100
C4767       C  0.22423691  0.61545299  0.50728853     0.36800
C4768       C  0.28035495  0.63945039  0.44892614     0.37600
N4769       N  0.15834702  0.67540916  0.48420092    -0.43200
N4770       N  0.22314650  0.58454187  0.44347553    -0.43700
N4771       N  0.29087081  0.64503562  0.43653177    -0.41000
N4772       N  0.21282446  0.61022774  0.51900361    -0.42500
H4773       H  0.26223467  0.61288762  0.51113839     0.13700
H4774       H  0.24175673  0.64018859  0.44538306     0.10200
H4775       H  0.20540612  0.65578488  0.48490764     0.11200
H4776       H  0.17576408  0.60446452  0.44102375     0.17100
C4777       C  0.28418082  0.55596069  0.40908848    -0.01200
C4778       C  0.30193478  0.56085514  0.41902484     0.07400
C4779       C  0.31881078  0.54929785  0.41537039    -0.07100
C4780       C  0.31766255  0.53193039  0.40379083     0.04900
C4781       C  0.29888000  0.52486287  0.39668544    -0.14400
C4782       C  0.28273868  0.53830267  0.39825643    -0.07700
C4783       C  0.30187300  0.57554379  0.43568506     0.05800
C4784       C  0.28871917  0.57199582  0.45121442    -0.08800
C4785       C  0.28660655  0.58524649  0.46692349     0.00800
C4786       C  0.29878137  0.60268685  0.46843672     0.00700
C4787       C  0.31237602  0.60591702  0.45264782    -0.12400
C4788       C  0.31386981  0.59267305  0.43645373     0.01100
C4789       C  0.27161103  0.57988080  0.48120611     0.40500
C4790       C  0.32702111  0.59751800  0.42027786     0.37100
C4791       C  0.26702184  0.56881858  0.41009080     0.36800
C4792       C  0.33576352  0.52066187  0.40146234     0.37600
N4793       N  0.25937633  0.57491666  0.49214490    -0.43200
N4794       N  0.33747583  0.60144176  0.40722971    -0.43700
N4795       N  0.35040282  0.51180038  0.39986497    -0.41000
N4796       N  0.25335186  0.57923534  0.41079037    -0.42500
H4797       H  0.26867913  0.53525431  0.39112391     0.13700
H4798       H  0.33270947  0.55317945  0.42254074     0.10200
H4799       H  0.27958152  0.55870439  0.45084146     0.11200
H4800       H  0.32128573  0.61925165  0.45216735     0.17100
C4801       C  0.20809208  0.45793287  0.37227823    -0.01200
C4802       C  0.21243820  0.47735254  0.37905597     0.07400
C4803       C  0.19664807  0.48953505  0.38512692    -0.07100
C4804       C  0.17695118  0.48287173  0.38436103     0.04900
C4805       C  0.17252283  0.46362395  0.37714179    -0.14400
C4806       C  0.18835465  0.45126103  0.37145160    -0.07700
C4807       C  0.23326640  0.48512499  0.38041005     0.05800
C4808       C  0.24517322  0.48606065  0.36335321    -0.08800
C4809       C  0.26505371  0.49252685  0.36417349     0.00800
C4810       C  0.27363133  0.49891748  0.38265974     0.00700
C4811       C  0.26092203  0.49845516  0.39948024    -0.12400
C4812       C  0.24138789  0.49159501  0.39858653     0.01100
C4813       C  0.27591623  0.49074779  0.34584534     0.40500
C4814       C  0.23033447  0.49037340  0.41691593     0.37100
C4815       C  0.22361669  0.44447120  0.36623363     0.36800
C4816       C  0.16164150  0.49598832  0.39155257     0.37600
N4817       N  0.28415544  0.48890317  0.33089471    -0.43200
N4818       N  0.22149539  0.48937547  0.43160784    -0.43700
N4819       N  0.14939051  0.50646980  0.39742113    -0.41000
N4820       N  0.23602184  0.43367200  0.36130900    -0.42500
H4821       H  0.18528569  0.43649412  0.36579353     0.13700
H4822       H  0.19973107  0.50442232  0.39046337     0.10200
H4823       H  0.23896468  0.48121216  0.34924646     0.11200
H4824       H  0.26665953  0.50289092  0.41390773     0.17100
C4825       C  0.31838788  0.35386685  0.49002581    -0.01200
C4826       C  0.33680756  0.35480723  0.50040896     0.07400
C4827       C  0.33953664  0.37117331  0.51301948    -0.07100
C4828       C  0.32418747  0.38456480  0.51725300     0.04900
C4829       C  0.30695899  0.38568168  0.50470623    -0.14400
C4830       C  0.30441855  0.36952814  0.49145764    -0.07700
C4831       C  0.35310411  0.33901695  0.49901358     0.05800
C4832       C  0.35726854  0.32985570  0.48075493    -0.08800
C4833       C  0.37180138  0.31478179  0.47897380     0.00800
C4834       C  0.38482251  0.30965941  0.49528667     0.00700
C4835       C  0.38155895  0.32052493  0.51299955    -0.12400
C4836       C  0.36532993  0.33341738  0.51547153     0.01100
C4837       C  0.37267267  0.30551252  0.45970632     0.40500
C4838       C  0.36146662  0.33991942  0.53556262     0.37100
C4839       C  0.31287375  0.33683983  0.47826906     0.36800
C4840       C  0.32616142  0.39435045  0.53623380     0.37600
N4841       N  0.37235133  0.29889643  0.44384051    -0.43200
N4842       N  0.35856033  0.34514176  0.55167815    -0.43700
N4843       N  0.32807177  0.40156484  0.55173939    -0.41000
N4844       N  0.30834048  0.32322480  0.46882769    -0.42500
H4845       H  0.29116045  0.36898617  0.48224669     0.13700
H4846       H  0.35354163  0.37313178  0.52068507     0.10200
H4847       H  0.34911951  0.33445930  0.46750097     0.11200
H4848       H  0.39136084  0.31914727  0.52564382     0.17100
C4849       C  0.30966366  0.42463484  0.45310387    -0.01200
C4850       C  0.29851010  0.44228386  0.45099329     0.07400
C4851       C  0.28400361  0.44644160  0.46513404    -0.07100
C4852       C  0.28104877  0.43400040  0.48172152     0.04900
C4853       C  0.29250568  0.41608209  0.48450892    -0.14400
C4854       C  0.30657149  0.41177117  0.46946525    -0.07700
C4855       C  0.30181367  0.45705089  0.43451528     0.05800
C4856       C  0.29870206  0.45157357  0.41467443    -0.08800
C4857       C  0.29880697  0.46579067  0.39908776     0.00800
C4858       C  0.30170291  0.48657432  0.40307535     0.00700
C4859       C  0.30567355  0.49138711  0.42334259    -0.12400
C4860       C  0.30626145  0.47702835  0.43859858     0.01100
C4861       C  0.29468197  0.45827849  0.37939750     0.40500
C4862       C  0.31105263  0.48337435  0.45859316     0.37100
C4863       C  0.32527911  0.42000271  0.43930061     0.36800
C4864       C  0.26616489  0.44052504  0.49565105     0.37600
N4865       N  0.29160890  0.45152404  0.36387237    -0.43200
N4866       N  0.31502365  0.48852052  0.47454099    -0.43700
N4867       N  0.25416534  0.44604004  0.50655225    -0.41000
N4868       N  0.33783479  0.41636013  0.42825544    -0.42500
H4869       H  0.31626237  0.39899460  0.47068566     0.13700
H4870       H  0.27512104  0.45988733  0.46339147     0.10200
H4871       H  0.29532262  0.43613793  0.41140727     0.11200
H4872       H  0.30703355  0.50653912  0.42824174     0.17100
C4873       C  0.23483382  0.39332226  0.49463677    -0.01200
C4874       C  0.22905617  0.38441588  0.51274002     0.07400
C4875       C  0.24384841  0.37709222  0.52569431    -0.07100
C4876       C  0.26404871  0.38062035  0.52195968     0.04900
C4877       C  0.26981238  0.39309634  0.50560961    -0.14400
C4878       C  0.25494788  0.39680428  0.49088901    -0.07700
C4879       C  0.20772390  0.38259049  0.51828529     0.05800
C4880       C  0.19545109  0.36967021  0.50756886    -0.08800
C4881       C  0.17530590  0.36762104  0.51220889     0.00800
C4882       C  0.16689416  0.37879156  0.52795031     0.00700
C4883       C  0.17926966  0.39185478  0.53854207    -0.12400
C4884       C  0.19941835  0.39385587  0.53382688     0.01100
C4885       C  0.16397744  0.35338143  0.50088336     0.40500
C4886       C  0.21116535  0.40792820  0.54488454     0.37100
C4887       C  0.22030363  0.40006579  0.48010075     0.36800
C4888       C  0.27817990  0.37283703  0.53634302     0.37600
N4889       N  0.15502335  0.34189021  0.49177866    -0.43200
N4890       N  0.22044466  0.41931026  0.55377602    -0.43700
N4891       N  0.28923795  0.36633314  0.54800385    -0.41000
N4892       N  0.20865125  0.40550771  0.46848856    -0.42500
H4893       H  0.25853994  0.40344692  0.47663860     0.13700
H4894       H  0.23955840  0.36907798  0.53910734     0.10200
H4895       H  0.20172860  0.36097123  0.49560498     0.11200
H4896       H  0.17322017  0.40056086  0.55060968     0.17100
C4897       C  0.34257466  0.50746927  0.62566785    -0.01200
C4898       C  0.34060210  0.51006047  0.64645466     0.07400
C4899       C  0.32188781  0.51636658  0.65327554    -0.07100
C4900       C  0.30530001  0.51820193  0.64033947     0.04900
C4901       C  0.30771272  0.51777300  0.61914018    -0.14400
C4902       C  0.32712342  0.51289838  0.61249410    -0.07700
C4903       C  0.35764703  0.50626391  0.66111470     0.05800
C4904       C  0.37714326  0.51125599  0.65574135    -0.08800
C4905       C  0.39359607  0.50652152  0.66801361     0.00800
C4906       C  0.39109297  0.49929990  0.68802077     0.00700
C4907       C  0.37111040  0.49628389  0.69389946    -0.12400
C4908       C  0.35505339  0.49788449  0.68037490     0.01100
C4909       C  0.41270336  0.50885929  0.65878817     0.40500
C4910       C  0.33635007  0.48963668  0.68668138     0.37100
C4911       C  0.35958378  0.49766412  0.61718299     0.36800
C4912       C  0.28643356  0.51837545  0.65024498     0.37600
N4913       N  0.42755017  0.51072910  0.65047762    -0.43200
N4914       N  0.32145482  0.48284217  0.69174886    -0.43700
N4915       N  0.27165196  0.51799644  0.65888312    -0.41000
N4916       N  0.37308743  0.48959118  0.61039331    -0.42500
H4917       H  0.32993418  0.51203026  0.59694539     0.13700
H4918       H  0.31983396  0.51901110  0.66867283     0.10200
H4919       H  0.37976997  0.51847574  0.64169571     0.11200
H4920       H  0.36745931  0.49236190  0.70864329     0.17100
C4921       C  0.29989509  0.48623851  0.55604422    -0.01200
C4922       C  0.29875890  0.46685031  0.56415315     0.07400
C4923       C  0.29700404  0.46456505  0.58489498    -0.07100
C4924       C  0.29419259  0.48113763  0.59720897     0.04900
C4925       C  0.29448354  0.50091529  0.58904222    -0.14400
C4926       C  0.29930291  0.50271713  0.56850843    -0.07700
C4927       C  0.29805163  0.44909251  0.55095898     0.05800
C4928       C  0.31245254  0.44675495  0.53624598    -0.08800
C4929       C  0.31074659  0.43211689  0.52158015     0.00800
C4930       C  0.29436044  0.41854737  0.52153588     0.00700
C4931       C  0.28022806  0.42114839  0.53688685    -0.12400
C4932       C  0.28215264  0.43564655  0.55153739     0.01100
C4933       C  0.32652872  0.43136331  0.50715508     0.40500
C4934       C  0.26697772  0.43672543  0.56657783     0.37100
C4935       C  0.30007022  0.48991316  0.53475863     0.36800
C4936       C  0.28975663  0.47710333  0.61788786     0.37600
N4937       N  0.33942036  0.43100560  0.49588532    -0.43200
N4938       N  0.25497239  0.43722082  0.57878909    -0.43700
N4939       N  0.28610879  0.47345298  0.63435821    -0.41000
N4940       N  0.29988108  0.49292021  0.51773367    -0.42500
H4941       H  0.30219402  0.51681042  0.56151773     0.13700
H4942       H  0.29668428  0.44974263  0.59135800     0.10200
H4943       H  0.32500464  0.45681298  0.53595530     0.11200
H4944       H  0.26667817  0.41282595  0.53740253     0.17100
C4945       C  0.28034980  0.55745745  0.55959908    -0.01200
C4946       C  0.29657540  0.57040414  0.55993983     0.07400
C4947       C  0.30978247  0.56947490  0.57612731    -0.07100
C4948       C  0.30795157  0.55471106  0.59112952     0.04900
C4949       C  0.29337585  0.53937337  0.58916766    -0.14400
C4950       C  0.27894510  0.54231328  0.57382821    -0.07700
C4951       C  0.30056519  0.58360878  0.54254471     0.05800
C4952       C  0.29580631  0.60387701  0.54315151    -0.08800
C4953       C  0.29582139  0.61568495  0.52567999     0.00800
C4954       C  0.29963955  0.60685201  0.50672926     0.00700
C4955       C  0.30795175  0.58736319  0.50738549    -0.12400
C4956       C  0.30759189  0.57559467  0.52468925     0.01100
C4957       C  0.29033193  0.63633532  0.52794326     0.40500
C4958       C  0.31371056  0.55496218  0.52357312     0.37100
C4959       C  0.26503648  0.55902809  0.54449601     0.36800
C4960       C  0.32068885  0.55690099  0.60831688     0.37600
N4961       N  0.28578596  0.65271794  0.53074359    -0.43200
N4962       N  0.31846270  0.53839921  0.52268929    -0.43700
N4963       N  0.33099543  0.55917881  0.62198214    -0.41000
N4964       N  0.25243105  0.56011210  0.53274111    -0.42500
H4965       H  0.26696334  0.53180889  0.57207448     0.13700
H4966       H  0.32169908  0.58024540  0.57693433     0.10200
H4967       H  0.29118130  0.61028291  0.55716178     0.11200
H4968       H  0.31411502  0.58062915  0.49423386     0.17100
C4969       C  0.24400788  0.54464658  0.62377407    -0.01200
C4970       C  0.22830399  0.53294347  0.61652855     0.07400
C4971       C  0.23289155  0.51567260  0.60615473    -0.07100
C4972       C  0.25245111  0.50998834  0.60226444     0.04900
C4973       C  0.26891917  0.52151982  0.60965462    -0.14400
C4974       C  0.26375009  0.53908456  0.62013671    -0.07700
C4975       C  0.20696617  0.53901980  0.61789534     0.05800
C4976       C  0.20088823  0.55769769  0.61028576    -0.08800
C4977       C  0.18090972  0.56364751  0.61058687     0.00800
C4978       C  0.16632057  0.55059868  0.61834084     0.00700
C4979       C  0.17240679  0.53166059  0.62534374    -0.12400
C4980       C  0.19237410  0.52584989  0.62524768     0.01100
C4981       C  0.17606236  0.58339946  0.60322745     0.40500
C4982       C  0.19751600  0.50638521  0.63320749     0.37100
C4983       C  0.24028001  0.56262008  0.63479784     0.36800
C4984       C  0.25362098  0.49435981  0.58773037     0.37600
N4985       N  0.17225238  0.59927579  0.59739092    -0.43200
N4986       N  0.20163675  0.49073240  0.63943138    -0.43700
N4987       N  0.25337981  0.48216598  0.57565719    -0.41000
N4988       N  0.23724490  0.57705511  0.64358728    -0.42500
H4989       H  0.27543562  0.54903296  0.62497242     0.13700
H4990       H  0.22081154  0.50719457  0.59966816     0.10200
H4991       H  0.21182746  0.56770361  0.60399031     0.11200
H4992       H  0.16157372  0.52140216  0.63141073     0.17100
C4993       C  0.65998147  0.51807476  0.31298486    -0.01200
C4994       C  0.66565618  0.50420377  0.32792848     0.07400
C4995       C  0.65454204  0.48668076  0.32983084    -0.07100
C4996       C  0.63776541  0.48299879  0.31773363     0.04900
C4997       C  0.63101069  0.49761484  0.30334522    -0.14400
C4998       C  0.64338958  0.51448747  0.30076165    -0.07700
C4999       C  0.68269500  0.50798091  0.34206362     0.05800
C5000       C  0.68232421  0.52499379  0.35395532    -0.08800
C5001       C  0.69756007  0.52924386  0.36769153     0.00800
C5002       C  0.71336916  0.51519207  0.37133803     0.00700
C5003       C  0.71429913  0.49893100  0.35795751    -0.12400
C5004       C  0.69929388  0.49520989  0.34373095     0.01100
C5005       C  0.69681299  0.54909501  0.37577438     0.40500
C5006       C  0.70143449  0.47831003  0.33076904     0.37100
C5007       C  0.67098577  0.53623365  0.30983354     0.36800
C5008       C  0.62954085  0.46324546  0.31974679     0.37600
N5009       N  0.69590809  0.56522004  0.38171386    -0.43200
N5010       N  0.70317346  0.46482015  0.32029837    -0.43700
N5011       N  0.62354359  0.44717061  0.32149587    -0.41000
N5012       N  0.67973511  0.55086108  0.30745510    -0.42500
H5013       H  0.63954802  0.52550605  0.28939836     0.13700
H5014       H  0.65909752  0.47564691  0.34092544     0.10200
H5015       H  0.67004982  0.53538684  0.35219117     0.11200
H5016       H  0.72651476  0.48843822  0.35929115     0.17100
C5017       C  0.61652219  0.50841965  0.23216541    -0.01200
C5018       C  0.62782157  0.49220726  0.22528216     0.07400
C5019       C  0.63780974  0.48034949  0.23946858    -0.07100
C5020       C  0.63461267  0.48256134  0.26001519     0.04900
C5021       C  0.62058359  0.49687838  0.26710781    -0.14400
C5022       C  0.61382893  0.51113193  0.25274701    -0.07700
C5023       C  0.62930267  0.48706349  0.20356034     0.05800
C5024       C  0.63664255  0.50111316  0.18985358    -0.08800
C5025       C  0.63910607  0.49642091  0.16961272     0.00800
C5026       C  0.63428044  0.47710914  0.16252162     0.00700
C5027       C  0.62649824  0.46323542  0.17624594    -0.12400
C5028       C  0.62401335  0.46799919  0.19645492     0.01100
C5029       C  0.64719865  0.51170120  0.15675823     0.40500
C5030       C  0.61605083  0.45295126  0.20966080     0.37100
C5031       C  0.60644479  0.52183492  0.21845057     0.36800
C5032       C  0.64490721  0.46854077  0.27289176     0.37600
N5033       N  0.65371928  0.52402096  0.14655522    -0.43200
N5034       N  0.60983925  0.44085056  0.22030328    -0.43700
N5035       N  0.65374682  0.45701040  0.28239677    -0.41000
N5036       N  0.59828566  0.53259056  0.20751967    -0.42500
H5037       H  0.60548298  0.52409547  0.25713181     0.13700
H5038       H  0.64760165  0.46861688  0.23437783     0.10200
H5039       H  0.64094072  0.51572899  0.19508785     0.11200
H5040       H  0.62266536  0.44839483  0.17129247     0.17100
C5041       C  0.48923148  0.36294234  0.32876028    -0.01200
C5042       C  0.50658098  0.35134912  0.32912324     0.07400
C5043       C  0.51909557  0.35237116  0.31273857    -0.07100
C5044       C  0.51503635  0.36510536  0.29637039     0.04900
C5045       C  0.49884882  0.37913934  0.29673990    -0.14400
C5046       C  0.48536036  0.37611319  0.31278248    -0.07700
C5047       C  0.51025221  0.33591567  0.34497151     0.05800
C5048       C  0.49721496  0.31990053  0.34631029    -0.08800
C5049       C  0.49875569  0.30574021  0.36171562     0.00800
C5050       C  0.51374561  0.30736638  0.37689122     0.00700
C5051       C  0.52825875  0.32230512  0.37380168    -0.12400
C5052       C  0.52627892  0.33676245  0.35849817     0.01100
C5053       C  0.48395939  0.29027791  0.36145232     0.40500
C5054       C  0.54037779  0.35285785  0.35749199     0.37100
C5055       C  0.47516517  0.36173578  0.34487393     0.36800
C5056       C  0.52551114  0.35961656  0.27865791     0.37600
N5057       N  0.47182786  0.27820851  0.36014776    -0.43200
N5058       N  0.55158764  0.36585142  0.35673334    -0.43700
N5059       N  0.53375031  0.35331307  0.26500750    -0.41000
N5060       N  0.46396831  0.36069760  0.35782131    -0.42500
H5061       H  0.47133668  0.38381687  0.31334330     0.13700
H5062       H  0.53148318  0.34201176  0.31214117     0.10200
H5063       H  0.48534135  0.31872513  0.33536690     0.11200
H5064       H  0.54104414  0.32329764  0.38350647     0.17100
C5065       C  0.53117119  0.44328218  0.29561084    -0.01200
C5066       C  0.55016102  0.43480023  0.29381686     0.07400
C5067       C  0.55145697  0.41525930  0.28671389    -0.07100
C5068       C  0.53464653  0.40558218  0.27916945     0.04900
C5069       C  0.51526795  0.41181322  0.28463990    -0.14400
C5070       C  0.51426897  0.43192788  0.29129476    -0.07700
C5071       C  0.56842340  0.44751401  0.29432270     0.05800
C5072       C  0.57269849  0.45946218  0.31087590    -0.08800
C5073       C  0.58751233  0.47420995  0.31011416     0.00800
C5074       C  0.59920481  0.47699689  0.29259579     0.00700
C5075       C  0.59576810  0.46335545  0.27689293    -0.12400
C5076       C  0.58046217  0.44943033  0.27735539     0.01100
C5077       C  0.58998015  0.48654706  0.32748687     0.40500
C5078       C  0.57597750  0.43908383  0.25904682     0.37100
C5079       C  0.52855330  0.46416771  0.30011061     0.36800
C5080       C  0.53789872  0.39644453  0.26010293     0.37600
N5081       N  0.59197059  0.49625432  0.34152405    -0.43200
N5082       N  0.57222102  0.43086346  0.24441735    -0.43700
N5083       N  0.54084107  0.39016629  0.24437693    -0.41000
N5084       N  0.52645972  0.48090795  0.30359411    -0.42500
H5085       H  0.50058445  0.44011963  0.29123089     0.13700
H5086       H  0.56597016  0.40915878  0.28347426     0.10200
H5087       H  0.56373000  0.45794332  0.32414733     0.11200
H5088       H  0.60323221  0.46458008  0.26285812     0.17100
C5089       C  0.48666970  0.36862114  0.23269763    -0.01200
C5090       C  0.48618689  0.38402411  0.21815261     0.07400
C5091       C  0.48991224  0.40351535  0.22424428    -0.07100
C5092       C  0.49358223  0.40806581  0.24427009     0.04900
C5093       C  0.49444887  0.39267959  0.25926712    -0.14400
C5094       C  0.49086580  0.37296014  0.25281902    -0.07700
C5095       C  0.48044570  0.38071462  0.19676195     0.05800
C5096       C  0.46415414  0.39123638  0.18860475    -0.08800
C5097       C  0.45855380  0.38926518  0.16845669     0.00800
C5098       C  0.46934283  0.37644778  0.15582183     0.00700
C5099       C  0.48584527  0.36617636  0.16402411    -0.12400
C5100       C  0.49147268  0.36826926  0.18412269     0.01100
C5101       C  0.44172933  0.40068819  0.16129309     0.40500
C5102       C  0.50896102  0.35788937  0.19127444     0.37100
C5103       C  0.48108377  0.34851157  0.22774341     0.36800
C5104       C  0.49470996  0.42905111  0.24876415     0.37600
N5105       N  0.42825189  0.40990819  0.15561125    -0.43200
N5106       N  0.52291563  0.34951788  0.19708979    -0.43700
N5107       N  0.49524352  0.44602582  0.25167022    -0.41000
N5108       N  0.47655131  0.33238849  0.22382458    -0.42500
H5109       H  0.48947120  0.36099188  0.26364288     0.13700
H5110       H  0.48922772  0.41550227  0.21324423     0.10200
H5111       H  0.45570537  0.40106710  0.19809490     0.11200
H5112       H  0.49446772  0.35633848  0.15471693     0.17100
C5113       C  0.37682297  0.51349313  0.33061797    -0.01200
C5114       C  0.35683377  0.51345538  0.32432870     0.07400
C5115       C  0.35273348  0.51877798  0.30435267    -0.07100
C5116       C  0.36804465  0.52216383  0.29050215     0.04900
C5117       C  0.38813272  0.51791203  0.29589385    -0.14400
C5118       C  0.39197639  0.51533326  0.31659886    -0.07700
C5119       C  0.34021158  0.50918698  0.33862885     0.05800
C5120       C  0.32423185  0.52249875  0.33988542    -0.08800
C5121       C  0.30917456  0.51985202  0.35404324     0.00800
C5122       C  0.31012170  0.50393569  0.36845888     0.00700
C5123       C  0.32598196  0.49020951  0.36637636    -0.12400
C5124       C  0.34019445  0.49219694  0.35127767     0.01100
C5125       C  0.29290826  0.53390009  0.35313056     0.40500
C5126       C  0.35449458  0.47631712  0.34891878     0.37100
C5127       C  0.38232296  0.51233005  0.35146737     0.36800
C5128       C  0.36243447  0.53197652  0.27205401     0.37600
N5129       N  0.27992079  0.54517900  0.35189047    -0.43200
N5130       N  0.36589638  0.46356521  0.34696519    -0.43700
N5131       N  0.35759536  0.54013047  0.25749431    -0.41000
N5132       N  0.38685571  0.51150640  0.36813995    -0.42500
H5133       H  0.40711055  0.51390610  0.32187598     0.13700
H5134       H  0.33744999  0.52071620  0.29958998     0.10200
H5135       H  0.32361267  0.53532012  0.32989515     0.11200
H5136       H  0.32808252  0.47807411  0.37686637     0.17100
C5137       C  0.41765995  0.46138784  0.29900900    -0.01200
C5138       C  0.43595785  0.45770399  0.29007538     0.07400
C5139       C  0.44358260  0.47164756  0.27663688    -0.07100
C5140       C  0.43402959  0.48985977  0.27293341     0.04900
C5141       C  0.41620502  0.49486162  0.28320861    -0.14400
C5142       C  0.40771802  0.47942191  0.29510728    -0.07700
C5143       C  0.44687142  0.43871062  0.29264145     0.05800
C5144       C  0.44457728  0.42438128  0.27796590    -0.08800
C5145       C  0.45846164  0.40907013  0.27598321     0.00800
C5146       C  0.47641544  0.40929600  0.28755042     0.00700
C5147       C  0.47535359  0.42037184  0.30544148    -0.12400
C5148       C  0.46139839  0.43575494  0.30752853     0.01100
C5149       C  0.45231935  0.39271533  0.26361625     0.40500
C5150       C  0.46322923  0.44908033  0.32417504     0.37100
C5151       C  0.40884479  0.44687321  0.31224939     0.36800
C5152       C  0.44398392  0.50318213  0.25933032     0.37600
N5153       N  0.44640839  0.37984880  0.25388787    -0.43200
N5154       N  0.46487308  0.45959546  0.33765212    -0.43700
N5155       N  0.45269625  0.51317903  0.24833196    -0.41000
N5156       N  0.40184488  0.43527233  0.32294729    -0.42500
H5157       H  0.39321993  0.48103955  0.30158023     0.13700
H5158       H  0.45738365  0.46831964  0.26912680     0.10200
H5159       H  0.43209917  0.42546823  0.26768772     0.11200
H5160       H  0.48698370  0.41874080  0.31660587     0.17100
C5161       C  0.40846620  0.53715007  0.22681356    -0.01200
C5162       C  0.39393305  0.52616927  0.21678475     0.07400
C5163       C  0.38459555  0.51048978  0.22707043    -0.07100
C5164       C  0.38860200  0.50668105  0.24751788     0.04900
C5165       C  0.40171273  0.51924784  0.25850758    -0.14400
C5166       C  0.41226638  0.53358399  0.24698128    -0.07700
C5167       C  0.38856734  0.53135566  0.19567698     0.05800
C5168       C  0.39357379  0.51833058  0.18025147    -0.08800
C5169       C  0.39104896  0.52403118  0.16010950     0.00800
C5170       C  0.38334188  0.54316708  0.15509288     0.00700
C5171       C  0.37811205  0.55600180  0.17064345    -0.12400
C5172       C  0.38050901  0.55025100  0.19067667     0.01100
C5173       C  0.39728356  0.51025043  0.14498381     0.40500
C5174       C  0.37474232  0.56410522  0.20594845     0.37100
C5175       C  0.42017740  0.55204009  0.21656749     0.36800
C5176       C  0.37839893  0.49021501  0.25686067     0.37600
N5177       N  0.40234949  0.49921270  0.13287438    -0.43200
N5178       N  0.37027846  0.57519043  0.21824899    -0.43700
N5179       N  0.36999131  0.47707530  0.26419912    -0.41000
N5180       N  0.42950738  0.56402071  0.20843707    -0.42500
H5181       H  0.42460889  0.54169262  0.25306999     0.13700
H5182       H  0.37386327  0.50143281  0.21921422     0.10200
H5183       H  0.40006770  0.50392586  0.18395256     0.11200
H5184       H  0.37187918  0.57057544  0.16717165     0.17100
C5185       C  0.53214172  0.65286793  0.32636459    -0.01200
C5186       C  0.51597661  0.66630280  0.32685553     0.07400
C5187       C  0.50194758  0.66545965  0.31138114    -0.07100
C5188       C  0.50284091  0.65077785  0.29659010     0.04900
C5189       C  0.51793449  0.63568617  0.29712326    -0.14400
C5190       C  0.53298197  0.63790012  0.31179510    -0.07700
C5191       C  0.51324859  0.68139190  0.34313449     0.05800
C5192       C  0.51070860  0.70160386  0.33806441    -0.08800
C5193       C  0.50762960  0.71635637  0.35258606     0.00800
C5194       C  0.50655968  0.71104400  0.37333387     0.00700
C5195       C  0.50954767  0.69054529  0.37804030    -0.12400
C5196       C  0.51227137  0.67594212  0.36346269     0.01100
C5197       C  0.50683421  0.73654993  0.34500230     0.40500
C5198       C  0.51311271  0.65533063  0.36988784     0.37100
C5199       C  0.54840068  0.65440934  0.34037252     0.36800
C5200       C  0.48686056  0.65088269  0.28214198     0.37600
N5201       N  0.50628884  0.75252374  0.33827505    -0.43200
N5202       N  0.51379151  0.63885882  0.37519348    -0.43700
N5203       N  0.47372434  0.65140935  0.27094087    -0.41000
N5204       N  0.56142871  0.65559296  0.35161820    -0.42500
H5205       H  0.54572351  0.62811349  0.31203041     0.13700
H5206       H  0.48970582  0.67599794  0.31122698     0.10200
H5207       H  0.51151702  0.70598839  0.32246715     0.11200
H5208       H  0.50911056  0.68569076  0.39348771     0.17100
C5209       C  0.47725046  0.57837750  0.27060654    -0.01200
C5210       C  0.46453973  0.57919678  0.28703151     0.07400
C5211       C  0.46855171  0.59260975  0.30221323    -0.07100
C5212       C  0.48512372  0.60514290  0.30151460     0.04900
C5213       C  0.49784972  0.60536445  0.28436558    -0.14400
C5214       C  0.49375733  0.59087800  0.26966684    -0.07700
C5215       C  0.44862003  0.56431445  0.28987014     0.05800
C5216       C  0.45379409  0.54541482  0.29720361    -0.08800
C5217       C  0.43990986  0.52999769  0.29776051     0.00800
C5218       C  0.42076032  0.53298441  0.28902261     0.00700
C5219       C  0.41467916  0.55308312  0.28609056    -0.12400
C5220       C  0.42860718  0.56855893  0.28563687     0.01100
C5221       C  0.44554577  0.51236033  0.30895799     0.40500
C5222       C  0.42235946  0.58823860  0.27928672     0.37100
C5223       C  0.47374576  0.56469074  0.25450023     0.36800
C5224       C  0.48912329  0.61539709  0.31991089     0.37600
N5225       N  0.45030596  0.49848412  0.31824171    -0.43200
N5226       N  0.41736089  0.60400772  0.27412461    -0.43700
N5227       N  0.49174131  0.62320315  0.33500937    -0.41000
N5228       N  0.47099843  0.55390834  0.24142262    -0.42500
H5229       H  0.50359536  0.58922087  0.25715076     0.13700
H5230       H  0.45920232  0.59244945  0.31531451     0.10200
H5231       H  0.46882416  0.54270583  0.30246295     0.11200
H5232       H  0.39958665  0.55627965  0.28136709     0.17100
C5233       C  0.54800102  0.57559097  0.30960735    -0.01200
C5234       C  0.55976806  0.56740638  0.29448272     0.07400
C5235       C  0.55861505  0.57591889  0.27548832    -0.07100
C5236       C  0.54543256  0.59143851  0.27081619     0.04900
C5237       C  0.53406313  0.60105101  0.28608698    -0.14400
C5238       C  0.53552025  0.59209334  0.30538683    -0.07700
C5239       C  0.57144477  0.54841846  0.29663057     0.05800
C5240       C  0.56615399  0.53245798  0.28447269    -0.08800
C5241       C  0.57853213  0.51582922  0.28215805     0.00800
C5242       C  0.59716931  0.51429620  0.29259628     0.00700
C5243       C  0.60101520  0.52964254  0.30664280    -0.12400
C5244       C  0.58894093  0.54677132  0.30804126     0.01100
C5245       C  0.57176884  0.50147756  0.26772679     0.40500
C5246       C  0.59547364  0.56300022  0.32039788     0.37100
C5247       C  0.54761901  0.56664482  0.32925553     0.36800
C5248       C  0.54257666  0.59410153  0.24964941     0.37600
N5249       N  0.56580072  0.49056436  0.25586801    -0.43200
N5250       N  0.60077244  0.57609151  0.33017045    -0.43700
N5251       N  0.54096630  0.59505920  0.23248799    -0.41000
N5252       N  0.54730087  0.55945696  0.34501844    -0.42500
H5253       H  0.52627370  0.59760057  0.31724285     0.13700
H5254       H  0.56712448  0.56913790  0.26363207     0.10200
H5255       H  0.55255691  0.53354217  0.27575305     0.11200
H5256       H  0.61357215  0.52882909  0.31664737     0.17100
C5257       C  0.53430622  0.62520365  0.18520137    -0.01200
C5258       C  0.53521800  0.64089793  0.19925315     0.07400
C5259       C  0.54442518  0.65878794  0.19352513    -0.07100
C5260       C  0.55243514  0.66131838  0.17444903     0.04900
C5261       C  0.55144196  0.64575287  0.16044959    -0.14400
C5262       C  0.54248886  0.62773697  0.16608388    -0.07700
C5263       C  0.52875024  0.63848567  0.22053790     0.05800
C5264       C  0.54256236  0.64205607  0.23581977    -0.08800
C5265       C  0.53848894  0.63730936  0.25582099     0.00800
C5266       C  0.52033186  0.62779381  0.26109008     0.00700
C5267       C  0.50544963  0.62742522  0.24598539    -0.12400
C5268       C  0.50951102  0.63258102  0.22602470     0.01100
C5269       C  0.55431074  0.64049520  0.27001994     0.40500
C5270       C  0.49359688  0.63199645  0.21152347     0.37100
C5271       C  0.52536418  0.60622790  0.18990909     0.36800
C5272       C  0.56238047  0.67982009  0.16986479     0.37600
N5273       N  0.56733357  0.64323959  0.28097013    -0.43200
N5274       N  0.48081555  0.63158259  0.19992501    -0.43700
N5275       N  0.57046735  0.69458181  0.16620400    -0.41000
N5276       N  0.51805794  0.59100268  0.19336972    -0.42500
H5277       H  0.54151990  0.61575374  0.15538624     0.13700
H5278       H  0.54554350  0.67084170  0.20413076     0.10200
H5279       H  0.55714746  0.64756368  0.23198269     0.11200
H5280       H  0.49055747  0.62277056  0.24940683     0.17100
loop_ 
_geom_bond_atom_site_label_1 
_geom_bond_atom_site_label_2 
_geom_bond_distance 
_geom_bond_site_symmetry_2 
_ccdc_geom_bond_type 
C1         C5189   1.577       .  S
C1         C5213   1.576       .  S
C1         C5237   1.588       .  S
C1         C5266   1.578       .  S
C2         C5117   1.578       .  S
C2         C5141   1.573       .  S
C2         C5165   1.585       .  S
C2         C5218   1.571       .  S
C3         C5045   1.601       .  S
C3         C5069   1.601       .  S
C3         C5093   1.569       .  S
C3         C5146   1.588       .  S
C4         C4997   1.585       .  S
C4         C5021   1.589       .  S
C4         C5074   1.578       .  S
C4         C5242   1.594       .  S
C5         C4901   1.588       .  S
C5         C4925   1.575       .  S
C5         C4949   1.580       .  S
C5         C4973   1.584       .  S
C6         C4829   1.585       .  S
C6         C4853   1.581       .  S
C6         C4877   1.586       .  S
C6         C4930   1.578       .  S
C7         C4781   1.583       .  S
C7         C4810   1.584       .  S
C7         C4858   1.588       .  S
C7         C5122   1.575       .  S
C8         C4738   1.583       .  S
C8         C4757   1.578       .  S
C8         C4786   1.586       .  S
C8         C4954   1.580       .  S
C9         C4637   1.572       .  S
C9         C4661   1.575       .  S
C9         C4685   1.582       .  S
C9         C4709   1.588       .  S
C10        C4589   1.574       .  S
C10        C4618   1.574       .  S
C10        C4666   1.591       .  S
C10        C5050   1.578       .  S
C11        C4541   1.600       .  S
C11        C4570   1.572       .  S
C11        C4594   1.577       .  S
C11        C4834   1.596       .  S
C12        C4493   1.579       .  S
C12        C4517   1.575       .  S
C12        C4546   1.589       .  S
C12        C4690   1.578       .  S
C13        C4397   1.597       .  S
C13        C4421   1.577       .  S
C13        C4445   1.582       .  S
C13        C4469   1.599       .  S
C14        C4349   1.582       .  S
C14        C4378   1.579       .  S
C14        C4426   1.588       .  S
C14        C4733   1.587       .  S
C15        C4301   1.584       .  S
C15        C4325   1.583       .  S
C15        C4354   1.583       .  S
C15        C5194   1.577       .  S
C16        C4258   1.581       .  S
C16        C4277   1.581       .  S
C16        C4306   1.592       .  S
C16        C4450   1.595       .  S
C17        C4162   1.576       .  S
C17        C4181   1.586       .  S
C17        C4205   1.589       .  S
C17        C4229   1.587       .  S
C18        C4109   1.585       .  S
C18        C4133   1.572       .  S
C18        C4210   1.584       .  S
C18        C4402   1.585       .  S
C19        C4061   1.571       .  S
C19        C4085   1.599       .  S
C19        C4114   1.589       .  S
C19        C4906   1.590       .  S
C20        C4037   1.575       .  S
C20        C4066   1.569       .  S
C20        C4186   1.582       .  S
C20        C4498   1.574       .  S
C21        C3965   1.584       .  S
C21        C3989   1.565       .  S
C21        C4013   1.587       .  S
C21        C4253   1.586       .  S
C22        C3917   1.597       .  S
C22        C3941   1.586       .  S
C22        C3970   1.578       .  S
C22        C5002   1.590       .  S
C23        C3869   1.576       .  S
C23        C3893   1.576       .  S
C23        C3922   1.585       .  S
C23        C4642   1.574       .  S
C24        C3845   1.598       .  S
C24        C3874   1.570       .  S
C24        C3994   1.577       .  S
C24        C4157   1.586       .  S
C25        C3754   1.579       .  S
C25        C3778   1.587       .  S
C25        C3797   1.586   1_545  S
C25        C3821   1.581       .  S
C26        C3677   1.591       .  S
C26        C3701   1.585   1_556  S
C26        C3730   1.589       .  S
C26        C3773   1.579       .  S
C27        C3605   1.580       .  S
C27        C3629   1.582   1_545  S
C27        C3653   1.580       .  S
C27        C3706   1.590       .  S
C28        C3557   1.583       .  S
C28        C3586   1.588       .  S
C28        C3634   1.581       .  S
C28        C3802   1.585   1_554  S
C29        C3485   1.590   1_556  S
C29        C3509   1.585       .  S
C29        C3533   1.585       .  S
C29        C3562   1.587       .  S
C30        C3413   1.584       .  S
C30        C3437   1.586       .  S
C30        C3461   1.598   1_455  S
C30        C3490   1.583   1_455  S
C31        C3341   1.587   1_554  S
C31        C3365   1.580   1_554  S
C31        C3389   1.584       .  S
C31        C3442   1.583       .  S
C32        C3293   1.591       .  S
C32        C3317   1.585       .  S
C32        C3370   1.593       .  S
C32        C3514   1.585   1_455  S
C33        C3221   1.577       .  S
C33        C3245   1.587   1_455  S
C33        C3274   1.582       .  S
C33        C3298   1.589       .  S
C34        C3149   1.581       .  S
C34        C3173   1.588       .  S
C34        C3197   1.581       .  S
C34        C3226   1.577   1_545  S
C35        C3082   1.584       .  S
C35        C3106   1.580   1_455  S
C35        C3130   1.578       .  S
C35        C3178   1.589       .  S
C36        C3058   1.584       .  S
C36        C3101   1.584       .  S
C36        C3250   1.583       .  S
C36        C3749   1.578       .  S
C37        C2981   1.577   1_556  S
C37        C3005   1.580       .  S
C37        C3029   1.583       .  S
C37        C3346   1.583       .  S
C38        C2933   1.573       .  S
C38        C2962   1.588       .  S
C38        C3010   1.578   1_545  S
C38        C3154   1.585       .  S
C39        C2866   1.585       .  S
C39        C2885   1.587       .  S
C39        C2909   1.585   1_545  S
C39        C2986   1.583   1_545  S
C40        C2813   1.580       .  S
C40        C2837   1.581       .  S
C40        C2890   1.588   1_556  S
C40        C2938   1.580       .  S
C41        C2741   1.583   1_655  S
C41        C2770   1.583       .  S
C41        C2789   1.587       .  S
C41        C3077   1.583       .  S
C42        C2693   1.590       .  S
C42        C2717   1.575       .  S
C42        C2765   1.586   1_554  S
C42        C3682   1.592       .  S
C43        C2621   1.583       .  S
C43        C2645   1.584       .  S
C43        C2674   1.579       .  S
C43        C2698   1.586       .  S
C44        C2597   1.581       .  S
C44        C2650   1.577       .  S
C44        C2746   1.576       .  S
C44        C2818   1.581       .  S
C45        C2525   1.581       .  S
C45        C2554   1.585   1_545  S
C45        C2578   1.577       .  S
C45        C3610   1.575       .  S
C46        C2477   1.588       .  S
C46        C2501   1.590       .  S
C46        C2530   1.590   1_455  S
C46        C2626   1.583       .  S
C47        C2429   1.586       .  S
C47        C2453   1.589       .  S
C47        C2482   1.579       .  S
C47        C2861   1.581       .  S
C48        C2405   1.581       .  S
C48        C2434   1.591       .  S
C48        C2549   1.591       .  S
C48        C3418   1.589       .  S
O49          C52   1.265       .  A
O49         Cd54   2.498       .  S
C50          O59   1.262       .  A
C50          O55   1.269       .  A
C50        C2357   1.484       .  S
O51          C57   1.269       .  A
O51         Cd54   2.472       .  S
C52          O60   1.267       .  A
C52        C4714   1.489       .  S
C53          O58   1.264       .  A
C53          O56   1.267       .  A
C53        C2333   1.495       .  S
Cd54         O61   2.419       .  S
Cd54         O60   2.484       .  S
Cd54         O59   2.433       .  S
Cd54         O55   2.467       .  S
Cd54         O58   2.467       .  S
Cd54         O56   2.514       .  S
C57          O61   1.266       .  A
C57        C2381   1.486       .  S
O62          C65   1.264       .  A
O62         Cd67   2.485       .  S
C63          O72   1.263       .  A
C63          O68   1.268       .  A
C63        C2309   1.483       .  S
O64          C70   1.270       .  A
O64         Cd67   2.482       .  S
C65          O73   1.267       .  A
C65        C3053   1.488       .  S
C66          O71   1.266       .  A
C66          O69   1.265       .  A
C66        C2290   1.502       .  S
Cd67         O74   2.423       .  S
Cd67         O73   2.482       .  S
Cd67         O72   2.420       .  S
Cd67         O68   2.464       .  S
Cd67         O71   2.508       .  S
Cd67         O69   2.486       .  S
C70          O74   1.265       .  A
C70        C2386   1.486       .  S
O75          C78   1.267       .  A
O75         Cd80   2.501       .  S
C76          O85   1.264       .  A
C76          O81   1.269       .  A
C76        C2261   1.484       .  S
O77          C83   1.270       .  A
O77         Cd80   2.464       .  S
C78          O86   1.268       .  A
C78        C2237   1.506       .  S
C79          O84   1.264       .  A
C79          O82   1.269       .  A
C79        C2573   1.503       .  S
Cd80         O87   2.425       .  S
Cd80         O86   2.508       .  S
Cd80         O85   2.411       .  S
Cd80         O81   2.478       .  S
Cd80         O84   2.493       .  S
Cd80         O82   2.510       .  S
C83          O87   1.263       .  A
C83        C2314   1.485       .  S
O88          C91   1.263       .  A
O88         Cd93   2.450       .  S
C89          O98   1.266       .  A
C89          O94   1.269       .  A
C89        C2266   1.478       .  S
O90          C96   1.268       .  A
O90         Cd93   2.454       .  S
C91          O99   1.271       .  A
C91        C2213   1.497       .  S
C92          O97   1.264       .  A
C92          O95   1.270       .  A
C92        C4282   1.500       .  S
Cd93        O100   2.444       .  S
Cd93         O99   2.523       .  S
Cd93         O98   2.413       .  S
Cd93         O94   2.473       .  S
Cd93         O97   2.460       .  S
Cd93         O95   2.517       .  S
C96         O100   1.265       .  A
C96        C2362   1.485       .  S
O101        C104   1.265   1_565  A
O101       Cd106   2.423       .  S
C102        O111   1.272       .  A
C102        O107   1.264       .  A
C102       C3826   1.499       .  S
O103        C109   1.263       .  A
O103       Cd106   2.416       .  S
C104        O112   1.268   1_545  A
C104       C2170   1.483       .  S
C105        O110   1.269       .  A
C105        O108   1.267       .  A
C105       C2194   1.486       .  S
Cd106       O113   2.552       .  S
Cd106       O112   2.459       .  S
Cd106       O111   2.518       .  S
Cd106       O107   2.460       .  S
Cd106       O110   2.484       .  S
Cd106       O108   2.431       .  S
C109        O113   1.273       .  A
C109       C2141   1.500       .  S
O114        C117   1.264       .  A
O114       Cd119   2.488       .  S
C115        O124   1.265       .  A
C115        O120   1.266       .  A
C115       C2117   1.477       .  S
O116        C122   1.269       .  A
O116       Cd119   2.476       .  S
C117        O125   1.269       .  A
C117       C4474   1.492       .  S
C118        O123   1.262       .  A
C118        O121   1.270       .  A
C118       C2338   1.499       .  S
Cd119       O126   2.426       .  S
Cd119       O125   2.486       .  S
Cd119       O124   2.426       .  S
Cd119       O120   2.457       .  S
Cd119       O123   2.445       .  S
Cd119       O121   2.528       .  S
C122        O126   1.266       .  A
C122       C2189   1.487       .  S
O127        C130   1.266       .  A
O127       Cd132   2.469       .  S
C128        O137   1.267       .  A
C128        O133   1.265       .  A
C128       C2122   1.484       .  S
O129        C135   1.269       .  A
O129       Cd132   2.480       .  S
C130        O138   1.270       .  A
C130       C4522   1.501       .  S
C131        O136   1.265       .  A
C131        O134   1.270       .  A
C131       C2069   1.502       .  S
Cd132       O139   2.437       .  S
Cd132       O138   2.512       .  S
Cd132       O137   2.433       .  S
Cd132       O133   2.445       .  S
Cd132       O136   2.456       .  S
Cd132       O134   2.517       .  S
C135        O139   1.267       .  A
C135       C2098   1.492       .  S
O140        C143   1.264       .  A
O140       Cd145   2.468       .  S
C141        O150   1.262       .  A
C141        O146   1.269       .  A
C141       C2165   1.479       .  S
O142        C148   1.271       .  A
O142       Cd145   2.496       .  S
C143        O151   1.270       .  A
C143       C2957   1.499       .  S
C144        O149   1.270       .  A
C144        O147   1.266       .  A
C144       C2045   1.506       .  S
Cd145       O152   2.409       .  S
Cd145       O151   2.513       .  S
Cd145       O150   2.397       .  S
Cd145       O146   2.473       .  S
Cd145       O149   2.502       .  S
Cd145       O147   2.482       .  S
C148        O152   1.265       .  A
C148       C2093   1.483       .  S
O153        C156   1.265       .  A
O153       Cd158   2.479       .  S
C154        O163   1.264       .  A
C154        O159   1.268       .  A
C154       C1997   1.484       .  S
O155        C161   1.269       .  A
O155       Cd158   2.474       .  S
C156        O164   1.269       .  A
C156       C3658   1.503       .  S
C157        O162   1.268       .  A
C157        O160   1.266       .  A
C157       C1973   1.498       .  S
Cd158       O165   2.432       .  S
Cd158       O164   2.525       .  S
Cd158       O163   2.424       .  S
Cd158       O159   2.481       .  S
Cd158       O162   2.499       .  S
Cd158       O160   2.475       .  S
C161        O165   1.267       .  A
C161       C2021   1.488       .  S
O166        C169   1.267       .  A
O166       Cd171   2.465       .  S
C167        O176   1.266       .  A
C167        O172   1.269       .  A
C167       C2026   1.488       .  S
O168        C174   1.265       .  A
O168       Cd171   2.440       .  S
C169        O177   1.266       .  A
C169       C2218   1.496       .  S
C170        O175   1.263       .  A
C170        O173   1.269       .  A
C170       C4613   1.491       .  S
Cd171       O178   2.431       .  S
Cd171       O177   2.484       .  S
Cd171       O176   2.419       .  S
Cd171       O172   2.474       .  S
Cd171       O175   2.445       .  S
Cd171       O173   2.505       .  S
C174        O178   1.265       .  A
C174       C1949   1.483       .  S
O179        C182   1.266       .  A
O179       Cd184   2.446       .  S
C180        O189   1.262       .  A
C180        O185   1.271       .  A
C180       C2914   1.500       .  S
O181        C187   1.266       .  A
O181       Cd184   2.474       .  S
C182        O190   1.265       .  A
C182       C2002   1.483       .  S
C183        O188   1.270       .  A
C183        O186   1.266       .  A
C183       C1925   1.488       .  S
Cd184       O191   2.508       .  S
Cd184       O190   2.435       .  S
Cd184       O189   2.459       .  S
Cd184       O185   2.540       .  S
Cd184       O188   2.494       .  S
Cd184       O186   2.413       .  S
C187        O191   1.268       .  A
C187       C1901   1.499       .  S
O192        C195   1.265       .  A
O192       Cd197   2.446       .  S
C193        O202   1.266       .  A
C193        O198   1.269       .  A
C193       C1930   1.487       .  S
O194        C200   1.267       .  A
O194       Cd197   2.474       .  S
C195        O203   1.267       .  A
C195       C1877   1.486       .  S
C196        O201   1.263       .  A
C196        O199   1.269       .  A
C196       C4330   1.500       .  S
Cd197       O204   2.426       .  S
Cd197       O203   2.501       .  S
Cd197       O202   2.428       .  S
Cd197       O198   2.474       .  S
Cd197       O201   2.452       .  S
Cd197       O199   2.528       .  S
C200        O204   1.263       .  A
C200       C1954   1.478       .  S
O205        C208   1.264       .  A
O205       Cd210   2.470       .  S
C206        O215   1.269       .  A
C206        O211   1.267       .  A
C206       C1829   1.474       .  S
O207        C213   1.268       .  A
O207       Cd210   2.446       .  S
C208        O216   1.270       .  A
C208       C3202   1.488       .  S
C209        O214   1.262       .  A
C209        O212   1.272       .  A
C209       C1805   1.500       .  S
Cd210       O217   2.434       .  S
Cd210       O216   2.502       .  S
Cd210       O215   2.441       .  S
Cd210       O211   2.408       .  S
Cd210       O214   2.432       .  S
Cd210       O212   2.544       .  S
C213        O217   1.268       .  A
C213       C1853   1.483       .  S
O218        C221   1.269       .  A
O218       Cd223   2.458       .  S
C219        O228   1.270       .  A
C219        O224   1.265       .  A
C219       C2074   1.503       .  S
O220        C226   1.266       .  A
O220       Cd223   2.480       .  S
C221        O229   1.267       .  A
C221       C1858   1.483       .  S
C222        O227   1.265       .  A
C222        O225   1.268       .  A
C222       C1781   1.479       .  S
Cd223       O230   2.525       .  S
Cd223       O229   2.440       .  S
Cd223       O228   2.511       .  S
Cd223       O224   2.460       .  S
Cd223       O227   2.428       .  S
Cd223       O225   2.462       .  S
C226        O230   1.268       .  A
C226       C4373   1.501       .  S
O231        C234   1.262       .  A
O231       Cd236   2.420       .  S
C232        O241   1.268       .  A
C232        O237   1.267       .  A
C232       C1757   1.476       .  S
O233        C239   1.265       .  A
O233       Cd236   2.430       .  S
C234        O242   1.272       .  A
C234       C1882   1.498       .  S
C235        O240   1.263       .  A
C235        O238   1.271       .  A
C235       C4565   1.496       .  S
Cd236       O243   2.457       .  S
Cd236       O242   2.536       .  S
Cd236       O241   2.444       .  S
Cd236       O237   2.455       .  S
Cd236       O240   2.449       .  S
Cd236       O238   2.522       .  S
C239        O243   1.268       .  A
C239       C1786   1.485       .  S
O244        C247   1.261       .  A
O244       Cd249   2.414       .  S
C245        O254   1.268       .  A
C245        O250   1.269       .  A
C245       C1762   1.486       .  S
O246        C252   1.267       .  A
O246       Cd249   2.417       .  S
C247        O255   1.276       .  A
C247       C1738   1.503       .  S
C248        O253   1.264       .  A
C248        O251   1.272       .  A
C248       C2458   1.492       .  S
Cd249       O256   2.424       .  S
Cd249       O255   2.564       .  S
Cd249       O254   2.433       .  S
Cd249       O250   2.446       .  S
Cd249       O253   2.464       .  S
Cd249       O251   2.523       .  S
C252        O256   1.270       .  A
C252       C1834   1.478       .  S
O257        C260   1.266       .  A
O257       Cd262   2.481       .  S
C258        O267   1.264       .  A
C258        O263   1.269       .  A
C258       C1709   1.480       .  S
O259        C265   1.268       .  A
O259       Cd262   2.456       .  S
C260        O268   1.267       .  A
C260       C1661   1.499       .  S
C261        O266   1.263       .  A
C261        O264   1.269       .  A
C261       C4882   1.498       .  S
Cd262       O269   2.426       .  S
Cd262       O268   2.489       .  S
Cd262       O267   2.393       .  S
Cd262       O263   2.493       .  S
Cd262       O266   2.461       .  S
Cd262       O264   2.513       .  S
C265        O269   1.263       .  A
C265       C1690   1.481       .  S
O270        C273   1.265       .  A
O270       Cd275   2.481       .  S
C271        O280   1.265       .  A
C271        O276   1.270       .  A
C271       C1714   1.485       .  S
O272        C278   1.268       .  A
O272       Cd275   2.453       .  S
C273        O281   1.270       .  A
C273       C1733   1.506       .  S
C274        O279   1.265       .  A
C274        O277   1.269       .  A
C274       C3125   1.502       .  S
Cd275       O282   2.428       .  S
Cd275       O281   2.525       .  S
Cd275       O280   2.408       .  S
Cd275       O276   2.478       .  S
Cd275       O279   2.485       .  S
Cd275       O277   2.516       .  S
C278        O282   1.264       .  A
C278       C1637   1.482       .  S
O283        C286   1.269       .  A
O283       Cd288   2.503       .  S
C284        O293   1.265       .  A
C284        O289   1.268       .  A
C284       C1613   1.486       .  S
O285        C291   1.270       .  A
O285       Cd288   2.468       .  S
C286        O294   1.267       .  A
C286       C2285   1.500       .  S
C287        O292   1.264       .  A
C287        O290   1.271       .  A
C287       C2506   1.510       .  S
Cd288       O295   2.439       .  S
Cd288       O294   2.475       .  S
Cd288       O293   2.416       .  S
Cd288       O289   2.491       .  S
Cd288       O292   2.482       .  S
Cd288       O290   2.552       .  S
C291        O295   1.263       .  A
C291       C1642   1.485       .  S
O296        C299   1.265       .  A
O296       Cd301   2.468       .  S
C297        O306   1.267       .  A
C297        O302   1.269       .  A
C297       C1618   1.489       .  S
O298        C304   1.268       .  A
O298       Cd301   2.464       .  S
C299        O307   1.269       .  A
C299       C1589   1.505       .  S
C300        O305   1.265       .  A
C300        O303   1.268       .  A
C300       C3898   1.501       .  S
Cd301       O308   2.425       .  S
Cd301       O307   2.526       .  S
Cd301       O306   2.421       .  S
Cd301       O302   2.480       .  S
Cd301       O305   2.478       .  S
Cd301       O303   2.515       .  S
C304        O308   1.263       .  A
C304       C1685   1.481       .  S
O309        C312   1.268       .  A
O309       Cd314   2.472       .  S
C310        O319   1.267       .  A
C310        O315   1.265       .  A
C310       C4978   1.495       .  S
O311        C317   1.264       .  A
O311       Cd314   2.430       .  S
C312        O320   1.264       .  A
C312       C1541   1.490       .  S
C313        O318   1.267       .  A
C313        O316   1.267       .  A
C313       C1565   1.484       .  S
Cd314       O321   2.482       .  S
Cd314       O320   2.439       .  S
Cd314       O319   2.486       .  S
Cd314       O315   2.463       .  S
Cd314       O318   2.455       .  S
Cd314       O316   2.418       .  S
C317        O321   1.269       .  A
C317       C1517   1.489       .  S
O322        C325   1.266       .  A
O322       Cd327   2.491       .  S
C323        O332   1.266       .  A
C323        O328   1.269       .  A
C323       C1570   1.485       .  S
O324        C330   1.269       .  A
O324       Cd327   2.474       .  S
C325        O333   1.269       .  A
C325       C1469   1.509       .  S
C326        O331   1.264       .  A
C326        O329   1.270       .  A
C326       C3322   1.510       .  S
Cd327       O334   2.437       .  S
Cd327       O333   2.525       .  S
Cd327       O332   2.420       .  S
Cd327       O328   2.486       .  S
Cd327       O331   2.491       .  S
Cd327       O329   2.541       .  S
C330        O334   1.263       .  A
C330       C1493   1.487       .  S
O335        C338   1.266       .  A
O335       Cd340   2.507       .  S
C336        O345   1.263       .  A
C336        O341   1.270       .  A
C336       C1498   1.484       .  S
O337        C343   1.270       .  A
O337       Cd340   2.480       .  S
C338        O346   1.267       .  A
C338       C2794   1.494       .  S
C339        O344   1.269       .  A
C339        O342   1.264       .  A
C339       C1421   1.505       .  S
Cd340       O347   2.430       .  S
Cd340       O346   2.497       .  S
Cd340       O345   2.420       .  S
Cd340       O341   2.465       .  S
Cd340       O344   2.522       .  S
Cd340       O342   2.489       .  S
C343        O347   1.267       .  A
C343       C1450   1.489       .  S
O348        C351   1.263       .  A
O348       Cd353   2.481       .  S
C349        O358   1.263       .  A
C349        O354   1.270       .  A
C349       C1546   1.488       .  S
O350        C356   1.270       .  A
O350       Cd353   2.507       .  S
C351        O359   1.270       .  A
C351       C3850   1.508       .  S
C352        O357   1.269       .  A
C352        O355   1.266       .  A
C352       C1666   1.505       .  S
Cd353       O360   2.422       .  S
Cd353       O359   2.549       .  S
Cd353       O358   2.423       .  S
Cd353       O354   2.476       .  S
Cd353       O357   2.522       .  S
Cd353       O355   2.499       .  S
C356        O360   1.265       .  A
C356       C1445   1.492       .  S
O361        C364   1.265       .  A
O361       Cd366   2.499       .  S
C362        O371   1.265       .  A
C362        O367   1.267       .  A
C362       C1373   1.490       .  S
O363        C369   1.269       .  A
O363       Cd366   2.482       .  S
C364        O372   1.269       .  A
C364       C3269   1.503       .  S
C365        O370   1.268       .  A
C365        O368   1.265       .  A
C365       C2242   1.503       .  S
Cd366       O373   2.439       .  S
Cd366       O372   2.529       .  S
Cd366       O371   2.452       .  S
Cd366       O367   2.462       .  S
Cd366       O370   2.521       .  S
Cd366       O368   2.478       .  S
C369        O373   1.266       .  A
C369       C1397   1.485       .  S
O374        C377   1.264       .  A
O374       Cd379   2.455       .  S
C375        O384   1.265       .  A
C375        O380   1.267       .  A
C375       C1349   1.481       .  S
O376        C382   1.269       .  A
O376       Cd379   2.463       .  S
C377        O385   1.269       .  A
C377       C4018   1.496       .  S
C378        O383   1.266       .  A
C378        O381   1.268       .  A
C378       C1522   1.488       .  S
Cd379       O386   2.422       .  S
Cd379       O385   2.500       .  S
Cd379       O384   2.436       .  S
Cd379       O380   2.460       .  S
Cd379       O383   2.440       .  S
Cd379       O381   2.481       .  S
C382        O386   1.266       .  A
C382       C1402   1.487       .  S
O387        C390   1.262       .  A
O387       Cd392   2.438       .  S
C388        O397   1.265       .  A
C388        O393   1.267       .  A
C388       C1354   1.484       .  S
O389        C395   1.268       .  A
O389       Cd392   2.476       .  S
C390        O398   1.269       .  A
C390       C4762   1.490       .  S
C391        O396   1.265       .  A
C391        O394   1.269       .  A
C391       C1301   1.497       .  S
Cd392       O399   2.417       .  S
Cd392       O398   2.517       .  S
Cd392       O397   2.430       .  S
Cd392       O393   2.458       .  S
Cd392       O396   2.440       .  S
Cd392       O394   2.525       .  S
C395        O399   1.266       .  A
C395       C1330   1.485       .  S
O400        C403   1.264       .  A
O400       Cd405   2.470       .  S
C401        O410   1.265       .  A
C401        O406   1.266       .  A
C401       C1378   1.487       .  S
O402        C408   1.269       .  A
O402       Cd405   2.482       .  S
C403        O411   1.270       .  A
C403       C2410   1.494       .  S
C404        O409   1.265       .  A
C404        O407   1.270       .  A
C404       C1810   1.503       .  S
Cd405       O412   2.419       .  S
Cd405       O411   2.518       .  S
Cd405       O410   2.448       .  S
Cd405       O406   2.457       .  S
Cd405       O409   2.462       .  S
Cd405       O407   2.517       .  S
C408        O412   1.266       .  A
C408       C1325   1.486       .  S
O413        C416   1.269       .  A
O413       Cd418   2.514       .  S
C414        O423   1.266       .  A
C414        O419   1.270       .  A
C414       C1277   1.491       .  S
O415        C421   1.268       .  A
O415       Cd418   2.457       .  S
C416        O424   1.266       .  A
C416       C1229   1.509       .  S
C417        O422   1.265       .  A
C417        O420   1.269       .  A
C417       C3466   1.500       .  S
Cd418       O425   2.429       .  S
Cd418       O424   2.506       .  S
Cd418       O423   2.426       .  S
Cd418       O419   2.494       .  S
Cd418       O422   2.506       .  S
Cd418       O420   2.513       .  S
C421        O425   1.264       .  A
C421       C1253   1.485       .  S
O426        C429   1.265       .  A
O426       Cd431   2.458       .  S
C427        O436   1.267       .  A
C427        O432   1.269       .  A
C427       C1282   1.493       .  S
O428        C434   1.268       .  A
O428       Cd431   2.463       .  S
C429        O437   1.267       .  A
C429       C1306   1.493       .  S
C430        O435   1.265       .  A
C430        O433   1.269       .  A
C430       C3946   1.504       .  S
Cd431       O438   2.453       .  S
Cd431       O437   2.511       .  S
Cd431       O436   2.432       .  S
Cd431       O432   2.497       .  S
Cd431       O435   2.510       .  S
Cd431       O433   2.513       .  S
C434        O438   1.265       .  A
C434       C1205   1.490       .  S
O439        C442   1.265       .  A
O439       Cd444   2.455       .  S
C440        O449   1.267       .  A
C440        O445   1.268       .  A
C440       C1181   1.486       .  S
O441        C447   1.266       .  A
O441       Cd444   2.456       .  S
C442        O450   1.268       .  A
C442       C1157   1.499       .  S
C443        O448   1.263       .  A
C443        O446   1.269       .  A
C443       C2669   1.497       .  S
Cd444       O451   2.454       .  S
Cd444       O450   2.503       .  S
Cd444       O449   2.422       .  S
Cd444       O445   2.478       .  S
Cd444       O448   2.463       .  S
Cd444       O446   2.510       .  S
C447        O451   1.266       .  A
C447       C1258   1.485       .  S
O452        C455   1.264       .  A
O452       Cd457   2.452       .  S
C453        O462   1.266       .  A
C453        O458   1.270       .  A
C453       C1186   1.487       .  S
O454        C460   1.267       .  A
O454       Cd457   2.465       .  S
C455        O463   1.269       .  A
C455       C1594   1.495       .  S
C456        O461   1.264       .  A
C456        O459   1.268       .  A
C456       C4805   1.496       .  S
Cd457       O464   2.436       .  S
Cd457       O463   2.529       .  S
Cd457       O462   2.405       .  S
Cd457       O458   2.494       .  S
Cd457       O461   2.475       .  S
Cd457       O459   2.519       .  S
C460        O464   1.263       .  A
C460       C1210   1.480       .  S
O465        C468   1.264       .  A
O465       Cd470   2.454       .  S
C466        O475   1.267       .  A
C466        O471   1.270       .  A
C466       C1133   1.484       .  S
O467        C473   1.267       .  A
O467       Cd470   2.423       .  S
C468        O476   1.269       .  A
C468       C1162   1.499       .  S
C469        O474   1.263       .  A
C469        O472   1.271       .  A
C469       C3394   1.501       .  S
Cd470       O477   2.438       .  S
Cd470       O476   2.525       .  S
Cd470       O475   2.435       .  S
Cd470       O471   2.455       .  S
Cd470       O474   2.464       .  S
Cd470       O472   2.524       .  S
C473        O477   1.266       .  A
C473       C1114   1.479       .  S
O478        C481   1.265       .  A
O478       Cd483   2.462       .  S
C479        O488   1.266       .  A
C479        O484   1.270       .  A
C479       C1138   1.484       .  S
O480        C486   1.267       .  A
O480       Cd483   2.460       .  S
C481        O489   1.267       .  A
C481       C1066   1.495       .  S
C482        O487   1.264       .  A
C482        O485   1.267       .  A
C482       C5170   1.494       .  S
Cd483       O490   2.426       .  S
Cd483       O489   2.493       .  S
Cd483       O488   2.430       .  S
Cd483       O484   2.468       .  S
Cd483       O487   2.489       .  S
Cd483       O485   2.494       .  S
C486        O490   1.263       .  A
C486       C1085   1.479       .  S
O491        C494   1.268       .  A
O491       Cd496   2.466       .  S
C492        O501   1.275       .  A
C492        O497   1.264       .  A
C492       C1474   1.506       .  S
O493        C499   1.266       .  A
O493       Cd496   2.463       .  S
C494        O502   1.268       .  A
C494       C1037   1.489       .  S
C495        O500   1.266       .  A
C495        O498   1.270       .  A
C495       C1109   1.479       .  S
Cd496       O503   2.526       .  S
Cd496       O502   2.439       .  S
Cd496       O501   2.555       .  S
Cd496       O497   2.439       .  S
Cd496       O500   2.423       .  S
Cd496       O498   2.447       .  S
C499        O503   1.273       .  A
C499       C2602   1.504       .  S
O504        C507   1.269       .  A
O504       Cd509   2.501       .  S
C505        O514   1.265       .  A
C505        O510   1.267       .  A
C505       C1042   1.480       .  S
O506        C512   1.269       .  A
O506       Cd509   2.458       .  S
C507        O515   1.266       .  A
C507       C1013   1.504       .  S
C508        O513   1.263       .  A
C508        O511   1.269       .  A
C508       C4090   1.506       .  S
Cd509       O516   2.432       .  S
Cd509       O515   2.484       .  S
Cd509       O514   2.439       .  S
Cd509       O510   2.472       .  S
Cd509       O513   2.483       .  S
Cd509       O511   2.546       .  S
C512        O516   1.264       .  A
C512       C1090   1.485       .  S
O517        C520   1.266       .  A
O517       Cd522   2.459       .  S
C518        O527   1.270       .  A
C518        O523   1.260       .  A
C518       C5261   1.486       .  S
O519        C525   1.270       .  A
O519       Cd522   2.513       .  S
C520        O528   1.264       .  A
C520        C970   1.481       .  S
C521        O526   1.271       .  A
C521        O524   1.264       .  A
C521        C989   1.484       .  S
Cd522       O529   2.456       .  S
Cd522       O528   2.419       .  S
Cd522       O527   2.548       .  S
Cd522       O523   2.440       .  S
Cd522       O526   2.503       .  S
Cd522       O524   2.400       .  S
C525        O529   1.265       .  A
C525        C941   1.498       .  S
O530        C533   1.267       .  A
O530       Cd535   2.460       .  S
C531        O540   1.270       .  A
C531        O536   1.263       .  A
C531       C3581   1.498       .  S
O532        C538   1.266       .  A
O532       Cd535   2.470       .  S
C533        O541   1.265       .  A
C533        C917   1.479       .  S
C534        O539   1.269       .  A
C534        O537   1.266       .  A
C534        C994   1.491       .  S
Cd535       O542   2.510       .  S
Cd535       O541   2.419       .  S
Cd535       O540   2.517       .  S
Cd535       O536   2.453       .  S
Cd535       O539   2.475       .  S
Cd535       O537   2.444       .  S
C538        O542   1.267       .  A
C538       C1906   1.499       .  S
O543        C546   1.264       .  A
O543       Cd548   2.436       .  S
C544        O553   1.265       .  A
C544        O549   1.266       .  A
C544        C922   1.483       .  S
O545        C551   1.270       .  A
O545       Cd548   2.483       .  S
C546        O554   1.269       .  A
C546       C3034   1.491       .  S
C547        O552   1.265       .  A
C547        O550   1.268       .  A
C547       C2146   1.497       .  S
Cd548       O555   2.408       .  S
Cd548       O554   2.513       .  S
Cd548       O553   2.419       .  S
Cd548       O549   2.450       .  S
Cd548       O552   2.451       .  S
Cd548       O550   2.498       .  S
C551        O555   1.266       .  A
C551        C893   1.487       .  S
O556        C559   1.266       .  A
O556       Cd561   2.448       .  S
C557        O566   1.266       .  A
C557        O562   1.269       .  A
C557        C898   1.482       .  S
O558        C564   1.267       .  A
O558       Cd561   2.460       .  S
C559        O567   1.269       .  A
C559       C1061   1.494       .  S
C560        O565   1.265       .  A
C560        O563   1.269       .  A
C560       C4138   1.499       .  S
Cd561       O568   2.432       .  S
Cd561       O567   2.510       .  S
Cd561       O566   2.420       .  S
Cd561       O562   2.469       .  S
Cd561       O565   2.475       .  S
Cd561       O563   2.503       .  S
C564        O568   1.265       .  A
C564        C965   1.485       .  S
O569        C572   1.264       .  A
O569       Cd574   2.507       .  S
C570        O579   1.265       .  A
C570        O575   1.266       .  A
C570        C845   1.479       .  S
O571        C577   1.269       .  A
O571       Cd574   2.474       .  S
C572        O580   1.268       .  A
C572       C3538   1.497       .  S
C573        O578   1.266       .  A
C573        O576   1.267       .  A
C573       C1426   1.503       .  S
Cd574       O581   2.424       .  S
Cd574       O580   2.507       .  S
Cd574       O579   2.444       .  S
Cd574       O575   2.443       .  S
Cd574       O578   2.505       .  S
Cd574       O576   2.505       .  S
C577        O581   1.267       .  A
C577        C874   1.486       .  S
O582        C585   1.269       .  A
O582       Cd587   2.492       .  S
C583        O592   1.266       .  A
C583        O588   1.270       .  A
C583        C869   1.489       .  S
O584        C590   1.271       .  A
O584       Cd587   2.479       .  S
C585        O593   1.266       .  A
C585        C946   1.498       .  S
C586        O591   1.267       .  A
C586        O589   1.268       .  A
C586       C4234   1.493       .  S
Cd587       O594   2.414       .  S
Cd587       O593   2.466       .  S
Cd587       O592   2.427       .  S
Cd587       O588   2.473       .  S
Cd587       O591   2.485       .  S
Cd587       O589   2.490       .  S
C590        O594   1.262       .  A
C590        C821   1.486       .  S
O595        C598   1.264       .  A
O595       Cd600   2.480       .  S
C596        O605   1.263       .  A
C596        O601   1.268       .  A
C596        C826   1.484       .  S
O597        C603   1.270       .  A
O597       Cd600   2.472       .  S
C598        O606   1.270       .  A
C598       C5026   1.505       .  S
C599        O604   1.263       .  A
C599        O602   1.271       .  A
C599        C773   1.504       .  S
Cd600       O607   2.427       .  S
Cd600       O606   2.526       .  S
Cd600       O605   2.429       .  S
Cd600       O601   2.456       .  S
Cd600       O604   2.465       .  S
Cd600       O602   2.550       .  S
C603        O607   1.265       .  A
C603        C797   1.487       .  S
O608        C611   1.265       .  A
O608       Cd613   2.462       .  S
C609        O618   1.268       .  A
C609        O614   1.266       .  A
C609        C850   1.468       .  S
O610        C616   1.269       .  A
O610       Cd613   2.458       .  S
C611        O619   1.272       .  A
C611       C2722   1.501       .  S
C612        O617   1.264       .  A
C612        O615   1.272       .  A
C612       C1234   1.505       .  S
Cd613       O620   2.431       .  S
Cd613       O619   2.504       .  S
Cd613       O618   2.462       .  S
Cd613       O614   2.396       .  S
Cd613       O617   2.451       .  S
Cd613       O615   2.553       .  S
C616        O620   1.268       .  A
C616        C802   1.482       .  S
O621        C624   1.268       .  A
O621       Cd626   2.517       .  S
C622        O631   1.264       .  A
C622        O627   1.269       .  A
C622        C749   1.487       .  S
O623        C629   1.270   1_554  A
O623       Cd626   2.471   1_554  S
C624        O632   1.267       .  A
C624       C2050   1.508       .  S
C625        O630   1.262       .  A
C625        O628   1.269       .  A
C625       C3725   1.497       .  S
Cd626       O633   2.429       .  S
Cd626       O632   2.513       .  S
Cd626       O631   2.414       .  S
Cd626       O627   2.494       .  S
Cd626       O630   2.477       .  S
Cd626       O628   2.538       .  S
C629        O633   1.264       .  A
C629        C725   1.485   1_556  S
O634        C637   1.265       .  A
O634       Cd639   2.480       .  S
C635        O644   1.267       .  A
C635        O640   1.268       .  A
C635        C754   1.488       .  S
O636        C642   1.268       .  A
O636       Cd639   2.464       .  S
C637        O645   1.267       .  A
C637        C778   1.500       .  S
C638        O643   1.264       .  A
C638        O641   1.268       .  A
C638       C4042   1.496       .  S
Cd639       O646   2.428       .  S
Cd639       O645   2.504       .  S
Cd639       O644   2.435       .  S
Cd639       O640   2.466       .  S
Cd639       O643   2.479       .  S
Cd639       O641   2.502       .  S
C642        O646   1.263       .  A
C642        C701   1.483       .  S
O647        C650   1.263       .  A
O647       Cd652   2.472       .  S
C648        O657   1.264       .  A
C648        O653   1.268       .  A
C648        C706   1.484       .  S
O649        C655   1.269       .  A
O649       Cd652   2.490       .  S
C650        O658   1.269       .  A
C650       C5098   1.503       .  S
C651        O656   1.268       .  A
C651        O654   1.266       .  A
C651       C1018   1.505       .  S
Cd652       O659   2.421       .  S
Cd652       O658   2.530       .  S
Cd652       O657   2.436       .  S
Cd652       O653   2.459       .  S
Cd652       O656   2.517       .  S
Cd652       O654   2.494       .  S
C655        O659   1.265       .  A
C655        C682   1.488       .  S
O660        C663   1.269       .  A
O660       Cd665   2.505       .  S
C661        O670   1.266       .  A
C661        O666   1.272       .  A
C661        C677   1.486       .  S
O662        C668   1.270       .  A
O662       Cd665   2.476       .  S
C663        O671   1.266       .  A
C663       C1978   1.500       .  S
C664        O669   1.266       .  A
C664        O667   1.270       .  A
C664       C2842   1.497       .  S
Cd665       O672   2.426       .  S
Cd665       O671   2.457       .  S
Cd665       O670   2.383       .  S
Cd665       O666   2.489       .  S
Cd665       O669   2.472       .  S
Cd665       O667   2.497       .  S
C668        O672   1.262       .  A
C668        C730   1.485       .  S
C673        C674   1.411       .  A
C673        C678   1.394       .  A
C673        C687   1.445       .  S
C674        C679   1.490       .  S
C674        C675   1.406       .  A
C675        C676   1.404       .  A
C675        H694   1.085       .  S
C676        C677   1.414       .  A
C676        C688   1.443       .  S
C677        C678   1.406       .  A
C678        H693   1.085       .  S
C679        C680   1.405       .  A
C679        C684   1.412       .  A
C680        C681   1.404       .  A
C680        H695   1.085       .  S
C681        C682   1.416       .  A
C681        C685   1.443       .  S
C682        C683   1.406       .  A
C683        C684   1.396       .  A
C683        H696   1.085       .  S
C684        C686   1.445       .  S
C685        N689   1.157       .  T
C686        N690   1.157       .  T
C687        N692   1.157       .  T
C688        N691   1.157       .  T
C697        C698   1.412       .  A
C697        C702   1.397       .  A
C697        C711   1.445       .  S
C698        C703   1.483   1_556  S
C698        C699   1.401       .  A
C699        C700   1.401       .  A
C699        H718   1.085       .  S
C700        C701   1.418       .  A
C700        C712   1.445       .  S
C701        C702   1.405       .  A
C702        H717   1.084       .  S
C703        C704   1.400       .  A
C703        C708   1.411       .  A
C704        C705   1.400       .  A
C704        H719   1.085       .  S
C705        C706   1.418       .  A
C705        C709   1.444       .  S
C706        C707   1.406       .  A
C707        C708   1.398       .  A
C707        H720   1.084       .  S
C708        C710   1.445       .  S
C709        N713   1.157       .  T
C710        N714   1.157       .  T
C711        N716   1.157       .  T
C712        N715   1.158       .  T
C721        C722   1.409       .  A
C721        C726   1.398       .  A
C721        C735   1.444       .  S
C722        C727   1.479       .  S
C722        C723   1.399       .  A
C723        C724   1.401       .  A
C723        H742   1.085       .  S
C724        C725   1.419       .  A
C724        C736   1.444   1_554  S
C725        C726   1.405       .  A
C726        H741   1.084       .  S
C727        C728   1.399       .  A
C727        C732   1.410       .  A
C728        C729   1.403       .  A
C728        H743   1.085       .  S
C729        C730   1.420       .  A
C729        C733   1.445       .  S
C730        C731   1.404       .  A
C731        C732   1.397       .  A
C731        H744   1.084       .  S
C732        C734   1.445   1_554  S
C733        N737   1.158       .  T
C734        N738   1.157       .  T
C735        N740   1.157       .  T
C736        N739   1.157       .  T
C745        C746   1.409       .  A
C745        C750   1.395       .  A
C745        C759   1.446       .  S
C746        C751   1.484       .  S
C746        C747   1.403       .  A
C747        C748   1.404       .  A
C747        H766   1.085       .  S
C748        C749   1.416       .  A
C748        C760   1.443       .  S
C749        C750   1.407       .  A
C750        H765   1.085       .  S
C751        C752   1.402       .  A
C751        C756   1.410       .  A
C752        C753   1.403       .  A
C752        H767   1.085       .  S
C753        C754   1.417       .  A
C753        C757   1.443       .  S
C754        C755   1.406       .  A
C755        C756   1.397       .  A
C755        H768   1.084       .  S
C756        C758   1.445       .  S
C757        N761   1.157       .  T
C758        N762   1.157       .  T
C759        N764   1.157       .  T
C760        N763   1.157       .  T
C769        C770   1.414       .  A
C769        C774   1.405       .  A
C769        C783   1.445       .  S
C770        C775   1.508   1_554  S
C770        C771   1.410       .  A
C771        C772   1.411       .  A
C771        H790   1.084       .  S
C772        C773   1.416       .  A
C772        C784   1.442       .  S
C773        C774   1.410       .  A
C774        H789   1.085       .  S
C775        C776   1.406       .  A
C775        C780   1.415       .  A
C776        C777   1.406       .  A
C776        H791   1.085       .  S
C777        C778   1.419       .  A
C777        C781   1.445       .  S
C778        C779   1.408       .  A
C779        C780   1.408       .  A
C779        H792   1.084       .  S
C780        C782   1.443       .  S
C781        N785   1.158       .  T
C782        N786   1.157       .  T
C783        N788   1.157   1_554  T
C784        N787   1.157       .  T
C793        C794   1.408       .  A
C793        C798   1.401       .  A
C793        C807   1.443       .  S
C794        C799   1.482       .  S
C794        C795   1.401       .  A
C795        C796   1.397       .  A
C795        H814   1.085       .  S
C796        C797   1.418       .  A
C796        C808   1.445       .  S
C797        C798   1.408       .  A
C798        H813   1.084       .  S
C799        C800   1.402       .  A
C799        C804   1.408       .  A
C800        C801   1.398       .  A
C800        H815   1.085       .  S
C801        C802   1.415       .  A
C801        C805   1.445       .  S
C802        C803   1.406       .  A
C803        C804   1.401       .  A
C803        H816   1.084       .  S
C804        C806   1.443       .  S
C805        N809   1.157       .  T
C806        N810   1.157       .  T
C807        N812   1.157       .  T
C808        N811   1.157       .  T
C817        C818   1.410       .  A
C817        C822   1.399       .  A
C817        C831   1.445       .  S
C818        C823   1.481   1_556  S
C818        C819   1.398       .  A
C819        C820   1.399       .  A
C819        H838   1.085   1_556  S
C820        C821   1.420       .  A
C820        C832   1.445       .  S
C821        C822   1.406       .  A
C822        H837   1.084       .  S
C823        C824   1.399       .  A
C823        C828   1.409       .  A
C824        C825   1.401       .  A
C824        H839   1.085       .  S
C825        C826   1.420       .  A
C825        C829   1.445       .  S
C826        C827   1.405       .  A
C827        C828   1.397       .  A
C827        H840   1.084       .  S
C828        C830   1.443       .  S
C829        N833   1.158       .  T
C830        N834   1.156       .  T
C831        N836   1.157       .  T
C832        N835   1.157       .  T
C841        C842   1.414       .  A
C841        C846   1.401       .  A
C841        C855   1.444       .  S
C842        C847   1.491       .  S
C842        C843   1.404       .  A
C843        C844   1.394       .  A
C843        H862   1.084       .  S
C844        C845   1.413       .  A
C844        C856   1.444       .  S
C845        C846   1.405       .  A
C846        H861   1.085       .  S
C847        C848   1.411       .  A
C847        C852   1.414   1_556  A
C848        C849   1.404       .  A
C848        H863   1.084       .  S
C849        C850   1.406   1_556  A
C849        C853   1.443       .  S
C850        C851   1.401       .  A
C851        C852   1.391       .  A
C851        H864   1.086       .  S
C852        C854   1.446       .  S
C853        N857   1.157       .  T
C854        N858   1.157       .  T
C855        N860   1.157   1_556  T
C856        N859   1.157       .  T
C865        C866   1.408       .  A
C865        C870   1.397       .  A
C865        C879   1.445       .  S
C866        C871   1.483       .  S
C866        C867   1.402       .  A
C867        C868   1.403       .  A
C867        H886   1.085       .  S
C868        C869   1.417       .  A
C868        C880   1.443       .  S
C869        C870   1.408       .  A
C870        H885   1.084       .  S
C871        C872   1.402       .  A
C871        C876   1.409       .  A
C872        C873   1.404       .  A
C872        H887   1.085       .  S
C873        C874   1.417       .  A
C873        C877   1.444       .  S
C874        C875   1.406       .  A
C875        C876   1.397       .  A
C875        H888   1.085       .  S
C876        C878   1.445       .  S
C877        N881   1.157       .  T
C878        N882   1.157       .  T
C879        N884   1.157       .  T
C880        N883   1.157       .  T
C889        C890   1.407       .  A
C889        C894   1.394       .  A
C889        C903   1.446       .  S
C890        C895   1.479       .  S
C890        C891   1.402       .  A
C891        C892   1.404       .  A
C891        H910   1.085       .  S
C892        C893   1.417       .  A
C892        C904   1.443       .  S
C893        C894   1.408       .  A
C894        H909   1.084       .  S
C895        C896   1.402       .  A
C895        C900   1.408       .  A
C896        C897   1.402       .  A
C896        H911   1.085       .  S
C897        C898   1.416       .  A
C897        C901   1.444       .  S
C898        C899   1.406       .  A
C899        C900   1.397       .  A
C899        H912   1.085       .  S
C900        C902   1.445       .  S
C901        N905   1.157       .  T
C902        N906   1.157       .  T
C903        N908   1.157       .  T
C904        N907   1.157       .  T
C913        C914   1.409   1_554  A
C913        C918   1.395       .  A
C913        C927   1.445       .  S
C914        C919   1.481       .  S
C914        C915   1.404       .  A
C915        C916   1.400       .  A
C915        H934   1.085       .  S
C916        C917   1.413   1_556  A
C916        C928   1.444       .  S
C917        C918   1.406       .  A
C918        H933   1.085       .  S
C919        C920   1.402       .  A
C919        C924   1.409       .  A
C920        C921   1.399       .  A
C920        H935   1.085       .  S
C921        C922   1.416       .  A
C921        C925   1.444       .  S
C922        C923   1.408       .  A
C923        C924   1.396       .  A
C923        H936   1.085       .  S
C924        C926   1.445       .  S
C925        N929   1.157       .  T
C926        N930   1.157       .  T
C927        N932   1.157       .  T
C928        N931   1.157       .  T
C937        C938   1.409       .  A
C937        C942   1.403       .  A
C937        C951   1.444       .  S
C938        C943   1.496   1_554  S
C938        C939   1.406       .  A
C939        C940   1.408       .  A
C939        H958   1.085       .  S
C940        C941   1.417       .  A
C940        C952   1.443       .  S
C941        C942   1.411       .  A
C942        H957   1.085       .  S
C943        C944   1.404       .  A
C943        C948   1.411       .  A
C944        C945   1.406       .  A
C944        H959   1.085       .  S
C945        C946   1.417       .  A
C945        C949   1.443       .  S
C946        C947   1.410       .  A
C947        C948   1.404       .  A
C947        H960   1.084       .  S
C948        C950   1.444       .  S
C949        N953   1.157       .  T
C950        N954   1.157   1_556  T
C951        N956   1.157   1_554  T
C952        N955   1.157       .  T
C961        C962   1.406       .  A
C961        C966   1.398       .  A
C961        C975   1.445       .  S
C962        C967   1.477   1_556  S
C962        C963   1.401       .  A
C963        C964   1.399       .  A
C963        H982   1.085       .  S
C964        C965   1.416       .  A
C964        C976   1.444       .  S
C965        C966   1.409       .  A
C966        H981   1.084       .  S
C967        C968   1.402       .  A
C967        C972   1.406       .  A
C968        C969   1.400       .  A
C968        H983   1.085       .  S
C969        C970   1.415       .  A
C969        C973   1.444       .  S
C970        C971   1.408       .  A
C971        C972   1.395       .  A
C971        H984   1.085       .  S
C972        C974   1.444       .  S
C973        N977   1.157       .  T
C974        N978   1.157   1_554  T
C975        N980   1.157   1_556  T
C976        N979   1.157       .  T
C985        C986   1.409       .  A
C985        C990   1.395       .  A
C985        C999   1.445       .  S
C986        C991   1.485       .  S
C986        C987   1.405       .  A
C987        C988   1.406       .  A
C987       H1006   1.085       .  S
C988        C989   1.415       .  A
C988       C1000   1.443       .  S
C989        C990   1.405       .  A
C990       H1005   1.085       .  S
C991        C992   1.402       .  A
C991        C996   1.409       .  A
C992        C993   1.403       .  A
C992       H1007   1.085       .  S
C993        C994   1.417       .  A
C993        C997   1.443       .  S
C994        C995   1.408       .  A
C995        C996   1.399       .  A
C995       H1008   1.084       .  S
C996        C998   1.445       .  S
C997       N1001   1.157       .  T
C998       N1002   1.157       .  T
C999       N1004   1.157       .  T
C1000      N1003   1.157       .  T
C1009      C1010   1.414       .  A
C1009      C1014   1.408       .  A
C1009      C1023   1.443       .  S
C1010      C1015   1.504   1_556  S
C1010      C1011   1.404       .  A
C1011      C1012   1.407       .  A
C1011      H1030   1.085       .  S
C1012      C1013   1.422       .  A
C1012      C1024   1.444       .  S
C1013      C1014   1.409       .  A
C1014      H1029   1.084       .  S
C1015      C1016   1.404       .  A
C1015      C1020   1.415       .  A
C1016      C1017   1.407       .  A
C1016      H1031   1.085       .  S
C1017      C1018   1.421       .  A
C1017      C1021   1.444       .  S
C1018      C1019   1.410       .  A
C1019      C1020   1.410       .  A
C1019      H1032   1.084       .  S
C1020      C1022   1.444       .  S
C1021      N1025   1.157       .  T
C1022      N1026   1.157       .  T
C1023      N1028   1.157       .  T
C1024      N1027   1.157       .  T
C1033      C1034   1.410       .  A
C1033      C1038   1.397       .  A
C1033      C1047   1.445       .  S
C1034      C1039   1.487       .  S
C1034      C1035   1.403       .  A
C1035      C1036   1.404       .  A
C1035      H1054   1.085       .  S
C1036      C1037   1.418       .  A
C1036      C1048   1.444       .  S
C1037      C1038   1.406       .  A
C1038      H1053   1.084       .  S
C1039      C1040   1.404       .  A
C1039      C1044   1.410       .  A
C1040      C1041   1.401       .  A
C1040      H1055   1.085       .  S
C1041      C1042   1.415       .  A
C1041      C1045   1.445       .  S
C1042      C1043   1.404       .  A
C1043      C1044   1.399       .  A
C1043      H1056   1.085       .  S
C1044      C1046   1.444       .  S
C1045      N1049   1.157       .  T
C1046      N1050   1.157       .  T
C1047      N1052   1.157       .  T
C1048      N1051   1.157       .  T
C1057      C1058   1.412       .  A
C1057      C1062   1.400       .  A
C1057      C1071   1.445       .  S
C1058      C1063   1.501   1_556  S
C1058      C1059   1.409       .  A
C1059      C1060   1.410       .  A
C1059      H1078   1.084       .  S
C1060      C1061   1.416       .  A
C1060      C1072   1.443       .  S
C1061      C1062   1.407       .  A
C1062      H1077   1.085       .  S
C1063      C1064   1.404       .  A
C1063      C1068   1.414       .  A
C1064      C1065   1.401       .  A
C1064      H1079   1.085       .  S
C1065      C1066   1.419       .  A
C1065      C1069   1.445       .  S
C1066      C1067   1.408       .  A
C1067      C1068   1.407       .  A
C1067      H1080   1.084       .  S
C1068      C1070   1.443       .  S
C1069      N1073   1.158       .  T
C1070      N1074   1.157       .  T
C1071      N1076   1.157   1_556  T
C1072      N1075   1.157       .  T
C1081      C1082   1.412       .  A
C1081      C1086   1.400       .  A
C1081      C1095   1.444       .  S
C1082      C1087   1.483   1_554  S
C1082      C1083   1.400       .  A
C1083      C1084   1.397       .  A
C1083      H1102   1.085       .  S
C1084      C1085   1.418       .  A
C1084      C1096   1.445       .  S
C1085      C1086   1.404       .  A
C1086      H1101   1.085       .  S
C1087      C1088   1.400       .  A
C1087      C1092   1.411       .  A
C1088      C1089   1.398       .  A
C1088      H1103   1.085       .  S
C1089      C1090   1.420       .  A
C1089      C1093   1.445       .  S
C1090      C1091   1.407       .  A
C1091      C1092   1.399       .  A
C1091      H1104   1.085       .  S
C1092      C1094   1.445       .  S
C1093      N1097   1.158       .  T
C1094      N1098   1.157       .  T
C1095      N1100   1.157       .  T
C1096      N1099   1.158       .  T
C1105      C1106   1.411   1_554  A
C1105      C1110   1.400   1_554  A
C1105      C1119   1.444       .  S
C1106      C1111   1.484   1_556  S
C1106      C1107   1.400       .  A
C1107      C1108   1.397       .  A
C1107      H1126   1.085       .  S
C1108      C1109   1.418       .  A
C1108      C1120   1.445       .  S
C1109      C1110   1.404       .  A
C1110      H1125   1.085   1_556  S
C1111      C1112   1.405       .  A
C1111      C1116   1.408       .  A
C1112      C1113   1.399       .  A
C1112      H1127   1.085   1_554  S
C1113      C1114   1.413       .  A
C1113      C1117   1.444       .  S
C1114      C1115   1.407       .  A
C1115      C1116   1.397       .  A
C1115      H1128   1.085       .  S
C1116      C1118   1.444       .  S
C1117      N1121   1.157   1_554  T
C1118      N1122   1.157       .  T
C1119      N1124   1.157       .  T
C1120      N1123   1.157       .  T
C1129      C1130   1.410       .  A
C1129      C1134   1.400       .  A
C1129      C1143   1.444       .  S
C1130      C1135   1.485       .  S
C1130      C1131   1.403       .  A
C1131      C1132   1.399       .  A
C1131      H1150   1.085       .  S
C1132      C1133   1.416       .  A
C1132      C1144   1.444       .  S
C1133      C1134   1.406       .  A
C1134      H1149   1.084       .  S
C1135      C1136   1.402       .  A
C1135      C1140   1.410       .  A
C1136      C1137   1.400       .  A
C1136      H1151   1.085       .  S
C1137      C1138   1.416       .  A
C1137      C1141   1.444       .  S
C1138      C1139   1.406       .  A
C1139      C1140   1.400       .  A
C1139      H1152   1.084       .  S
C1140      C1142   1.444       .  S
C1141      N1145   1.157       .  T
C1142      N1146   1.157       .  T
C1143      N1148   1.157       .  T
C1144      N1147   1.157       .  T
C1153      C1154   1.412       .  A
C1153      C1158   1.402       .  A
C1153      C1167   1.444       .  S
C1154      C1159   1.500       .  S
C1154      C1155   1.406       .  A
C1155      C1156   1.409       .  A
C1155      H1174   1.085       .  S
C1156      C1157   1.419       .  A
C1156      C1168   1.444       .  S
C1157      C1158   1.408       .  A
C1158      H1173   1.084       .  S
C1159      C1160   1.401       .  A
C1159      C1164   1.415       .  A
C1160      C1161   1.401       .  A
C1160      H1175   1.085       .  S
C1161      C1162   1.421       .  A
C1161      C1165   1.445       .  S
C1162      C1163   1.408       .  A
C1163      C1164   1.411       .  A
C1163      H1176   1.084       .  S
C1164      C1166   1.444       .  S
C1165      N1169   1.157       .  T
C1166      N1170   1.157       .  T
C1167      N1172   1.157       .  T
C1168      N1171   1.157       .  T
C1177      C1178   1.410       .  A
C1177      C1182   1.396       .  A
C1177      C1191   1.445       .  S
C1178      C1183   1.487       .  S
C1178      C1179   1.404       .  A
C1179      C1180   1.403       .  A
C1179      H1198   1.085       .  S
C1180      C1181   1.417       .  A
C1180      C1192   1.444       .  S
C1181      C1182   1.406       .  A
C1182      H1197   1.085       .  S
C1183      C1184   1.405       .  A
C1183      C1188   1.410       .  A
C1184      C1185   1.405       .  A
C1184      H1199   1.085       .  S
C1185      C1186   1.416       .  A
C1185      C1189   1.443       .  S
C1186      C1187   1.406       .  A
C1187      C1188   1.395       .  A
C1187      H1200   1.085       .  S
C1188      C1190   1.445       .  S
C1189      N1193   1.157       .  T
C1190      N1194   1.157       .  T
C1191      N1196   1.157       .  T
C1192      N1195   1.157       .  T
C1201      C1202   1.411   1_655  A
C1201      C1206   1.399       .  A
C1201      C1215   1.445       .  S
C1202      C1207   1.487       .  S
C1202      C1203   1.402   1_455  A
C1203      C1204   1.402       .  A
C1203      H1222   1.085   1_655  S
C1204      C1205   1.419       .  A
C1204      C1216   1.444       .  S
C1205      C1206   1.407       .  A
C1206      H1221   1.084       .  S
C1207      C1208   1.400       .  A
C1207      C1212   1.413       .  A
C1208      C1209   1.399       .  A
C1208      H1223   1.085       .  S
C1209      C1210   1.418       .  A
C1209      C1213   1.446       .  S
C1210      C1211   1.404       .  A
C1211      C1212   1.401       .  A
C1211      H1224   1.085       .  S
C1212      C1214   1.445       .  S
C1213      N1217   1.158       .  T
C1214      N1218   1.157       .  T
C1215      N1220   1.157   1_655  T
C1216      N1219   1.158       .  T
C1225      C1226   1.416       .  A
C1225      C1230   1.408       .  A
C1225      C1239   1.444       .  S
C1226      C1231   1.513       .  S
C1226      C1227   1.407       .  A
C1227      C1228   1.411       .  A
C1227      H1246   1.084       .  S
C1228      C1229   1.421       .  A
C1228      C1240   1.443       .  S
C1229      C1230   1.409       .  A
C1230      H1245   1.084       .  S
C1231      C1232   1.404       .  A
C1231      C1236   1.419       .  A
C1232      C1233   1.404       .  A
C1232      H1247   1.085       .  S
C1233      C1234   1.421       .  A
C1233      C1237   1.445       .  S
C1234      C1235   1.408       .  A
C1235      C1236   1.415       .  A
C1235      H1248   1.084       .  S
C1236      C1238   1.443       .  S
C1237      N1241   1.157       .  T
C1238      N1242   1.157       .  T
C1239      N1244   1.157       .  T
C1240      N1243   1.157       .  T
C1249      C1250   1.406       .  A
C1249      C1254   1.399       .  A
C1249      C1263   1.444       .  S
C1250      C1255   1.481   1_655  S
C1250      C1251   1.402   1_655  A
C1251      C1252   1.400       .  A
C1251      H1270   1.085       .  S
C1252      C1253   1.416   1_455  A
C1252      C1264   1.444       .  S
C1253      C1254   1.410       .  A
C1254      H1269   1.084       .  S
C1255      C1256   1.402   1_455  A
C1255      C1260   1.407       .  A
C1256      C1257   1.400   1_655  A
C1256      H1271   1.085       .  S
C1257      C1258   1.415       .  A
C1257      C1261   1.444   1_455  S
C1258      C1259   1.408       .  A
C1259      C1260   1.400       .  A
C1259      H1272   1.084       .  S
C1260      C1262   1.444       .  S
C1261      N1265   1.157       .  T
C1262      N1266   1.157       .  T
C1263      N1268   1.157       .  T
C1264      N1267   1.157       .  T
C1273      C1274   1.407       .  A
C1273      C1278   1.398       .  A
C1273      C1287   1.444       .  S
C1274      C1279   1.483       .  S
C1274      C1275   1.403       .  A
C1275      C1276   1.405       .  A
C1275      H1294   1.085       .  S
C1276      C1277   1.417       .  A
C1276      C1288   1.443       .  S
C1277      C1278   1.408       .  A
C1278      H1293   1.084       .  S
C1279      C1280   1.402       .  A
C1279      C1284   1.407       .  A
C1280      C1281   1.408       .  A
C1280      H1295   1.084       .  S
C1281      C1282   1.421       .  A
C1281      C1285   1.443       .  S
C1282      C1283   1.407       .  A
C1283      C1284   1.395       .  A
C1283      H1296   1.084       .  S
C1284      C1286   1.445       .  S
C1285      N1289   1.157       .  T
C1286      N1290   1.157       .  T
C1287      N1292   1.157       .  T
C1288      N1291   1.157       .  T
C1297      C1298   1.412       .  A
C1297      C1302   1.399       .  A
C1297      C1311   1.445       .  S
C1298      C1303   1.501       .  S
C1298      C1299   1.409       .  A
C1299      C1300   1.411       .  A
C1299      H1318   1.084       .  S
C1300      C1301   1.417       .  A
C1300      C1312   1.443       .  S
C1301      C1302   1.407       .  A
C1302      H1317   1.085       .  S
C1303      C1304   1.403   1_455  A
C1303      C1308   1.415   1_455  A
C1304      C1305   1.400       .  A
C1304      H1319   1.085   1_655  S
C1305      C1306   1.418       .  A
C1305      C1309   1.445       .  S
C1306      C1307   1.407       .  A
C1307      C1308   1.410       .  A
C1307      H1320   1.084       .  S
C1308      C1310   1.443       .  S
C1309      N1313   1.157       .  T
C1310      N1314   1.157       .  T
C1311      N1316   1.157       .  T
C1312      N1315   1.157       .  T
C1321      C1322   1.409       .  A
C1321      C1326   1.396       .  A
C1321      C1335   1.445       .  S
C1322      C1327   1.481       .  S
C1322      C1323   1.402       .  A
C1323      C1324   1.403       .  A
C1323      H1342   1.085       .  S
C1324      C1325   1.416       .  A
C1324      C1336   1.443       .  S
C1325      C1326   1.407       .  A
C1326      H1341   1.085       .  S
C1327      C1328   1.402       .  A
C1327      C1332   1.409       .  A
C1328      C1329   1.403       .  A
C1328      H1343   1.085       .  S
C1329      C1330   1.417       .  A
C1329      C1333   1.443       .  S
C1330      C1331   1.406       .  A
C1331      C1332   1.395       .  A
C1331      H1344   1.085       .  S
C1332      C1334   1.445       .  S
C1333      N1337   1.157       .  T
C1334      N1338   1.157       .  T
C1335      N1340   1.157       .  T
C1336      N1339   1.157       .  T
C1345      C1346   1.406   1_655  A
C1345      C1350   1.398       .  A
C1345      C1359   1.444   1_655  S
C1346      C1351   1.479       .  S
C1346      C1347   1.403   1_455  A
C1347      C1348   1.401       .  A
C1347      H1366   1.085       .  S
C1348      C1349   1.413       .  A
C1348      C1360   1.443       .  S
C1349      C1350   1.408       .  A
C1350      H1365   1.085       .  S
C1351      C1352   1.401       .  A
C1351      C1356   1.406       .  A
C1352      C1353   1.401       .  A
C1352      H1367   1.084       .  S
C1353      C1354   1.416       .  A
C1353      C1357   1.444       .  S
C1354      C1355   1.408       .  A
C1355      C1356   1.397       .  A
C1355      H1368   1.084       .  S
C1356      C1358   1.444       .  S
C1357      N1361   1.157       .  T
C1358      N1362   1.157       .  T
C1359      N1364   1.157       .  T
C1360      N1363   1.157       .  T
C1369      C1370   1.408       .  A
C1369      C1374   1.401       .  A
C1369      C1383   1.444       .  S
C1370      C1375   1.484   1_655  S
C1370      C1371   1.401   1_655  A
C1371      C1372   1.400       .  A
C1371      H1390   1.085       .  S
C1372      C1373   1.417   1_455  A
C1372      C1384   1.444       .  S
C1373      C1374   1.410       .  A
C1374      H1389   1.084       .  S
C1375      C1376   1.402   1_455  A
C1375      C1380   1.408       .  A
C1376      C1377   1.401   1_655  A
C1376      H1391   1.085       .  S
C1377      C1378   1.416       .  A
C1377      C1381   1.444       .  S
C1378      C1379   1.409       .  A
C1379      C1380   1.400       .  A
C1379      H1392   1.084       .  S
C1380      C1382   1.444       .  S
C1381      N1385   1.157   1_455  T
C1382      N1386   1.157       .  T
C1383      N1388   1.157       .  T
C1384      N1387   1.157       .  T
C1393      C1394   1.411       .  A
C1393      C1398   1.402       .  A
C1393      C1407   1.444       .  S
C1394      C1399   1.488       .  S
C1394      C1395   1.403       .  A
C1395      C1396   1.399       .  A
C1395      H1414   1.085       .  S
C1396      C1397   1.414       .  A
C1396      C1408   1.444       .  S
C1397      C1398   1.406       .  A
C1398      H1413   1.084       .  S
C1399      C1400   1.403       .  A
C1399      C1404   1.410       .  A
C1400      C1401   1.397       .  A
C1400      H1415   1.085       .  S
C1401      C1402   1.416       .  A
C1401      C1405   1.445       .  S
C1402      C1403   1.408       .  A
C1403      C1404   1.402       .  A
C1403      H1416   1.084       .  S
C1404      C1406   1.443       .  S
C1405      N1409   1.157       .  T
C1406      N1410   1.157       .  T
C1407      N1412   1.157       .  T
C1408      N1411   1.157       .  T
C1417      C1418   1.413       .  A
C1417      C1422   1.408       .  A
C1417      C1431   1.444       .  S
C1418      C1423   1.505       .  S
C1418      C1419   1.406       .  A
C1419      C1420   1.410       .  A
C1419      H1438   1.085       .  S
C1420      C1421   1.417       .  A
C1420      C1432   1.443       .  S
C1421      C1422   1.411       .  A
C1422      H1437   1.084       .  S
C1423      C1424   1.407       .  A
C1423      C1428   1.412       .  A
C1424      C1425   1.410       .  A
C1424      H1439   1.084       .  S
C1425      C1426   1.417       .  A
C1425      C1429   1.443       .  S
C1426      C1427   1.408       .  A
C1427      C1428   1.406       .  A
C1427      H1440   1.080       .  S
C1428      C1430   1.444       .  S
C1429      N1433   1.157       .  T
C1430      N1434   1.157       .  T
C1431      N1436   1.157       .  T
C1432      N1435   1.157       .  T
C1441      C1442   1.410       .  A
C1441      C1446   1.396       .  A
C1441      C1455   1.446       .  S
C1442      C1447   1.490       .  S
C1442      C1443   1.405       .  A
C1443      C1444   1.406       .  A
C1443      H1462   1.085       .  S
C1444      C1445   1.417       .  A
C1444      C1456   1.443       .  S
C1445      C1446   1.407       .  A
C1446      H1461   1.084       .  S
C1447      C1448   1.405       .  A
C1447      C1452   1.410       .  A
C1448      C1449   1.403       .  A
C1448      H1463   1.085       .  S
C1449      C1450   1.416       .  A
C1449      C1453   1.444       .  S
C1450      C1451   1.407       .  A
C1451      C1452   1.398       .  A
C1451      H1464   1.085       .  S
C1452      C1454   1.445       .  S
C1453      N1457   1.157       .  T
C1454      N1458   1.157       .  T
C1455      N1460   1.157       .  T
C1456      N1459   1.157       .  T
C1465      C1466   1.411       .  A
C1465      C1470   1.411       .  A
C1465      C1479   1.443       .  S
C1466      C1471   1.503       .  S
C1466      C1467   1.403       .  A
C1467      C1468   1.407       .  A
C1467      H1486   1.085       .  S
C1468      C1469   1.422       .  A
C1468      C1480   1.444       .  S
C1469      C1470   1.412       .  A
C1470      H1485   1.084       .  S
C1471      C1472   1.409       .  A
C1471      C1476   1.409       .  A
C1472      C1473   1.415       .  A
C1472      H1487   1.084       .  S
C1473      C1474   1.417       .  A
C1473      C1477   1.442       .  S
C1474      C1475   1.412       .  A
C1475      C1476   1.403       .  A
C1475      H1488   1.084       .  S
C1476      C1478   1.444       .  S
C1477      N1481   1.157       .  T
C1478      N1482   1.157       .  T
C1479      N1484   1.157       .  T
C1480      N1483   1.157       .  T
C1489      C1490   1.408       .  A
C1489      C1494   1.400       .  A
C1489      C1503   1.443   1_455  S
C1490      C1495   1.478       .  S
C1490      C1491   1.397       .  A
C1491      C1492   1.400       .  A
C1491      H1510   1.085       .  S
C1492      C1493   1.421       .  A
C1492      C1504   1.444       .  S
C1493      C1494   1.406       .  A
C1494      H1509   1.084       .  S
C1495      C1496   1.398   1_455  A
C1495      C1500   1.409       .  A
C1496      C1497   1.401       .  A
C1496      H1511   1.085       .  S
C1497      C1498   1.420       .  A
C1497      C1501   1.445       .  S
C1498      C1499   1.406   1_655  A
C1499      C1500   1.398       .  A
C1499      H1512   1.084       .  S
C1500      C1502   1.445       .  S
C1501      N1505   1.158       .  T
C1502      N1506   1.157       .  T
C1503      N1508   1.157       .  T
C1504      N1507   1.157       .  T
C1513      C1514   1.413       .  A
C1513      C1518   1.404       .  A
C1513      C1527   1.444       .  S
C1514      C1519   1.492   1_455  S
C1514      C1515   1.401       .  A
C1515      C1516   1.399       .  A
C1515      H1534   1.085       .  S
C1516      C1517   1.420       .  A
C1516      C1528   1.445       .  S
C1517      C1518   1.406       .  A
C1518      H1533   1.084       .  S
C1519      C1520   1.406       .  A
C1519      C1524   1.410       .  A
C1520      C1521   1.405       .  A
C1520      H1535   1.085       .  S
C1521      C1522   1.414       .  A
C1521      C1525   1.443       .  S
C1522      C1523   1.408       .  A
C1523      C1524   1.399       .  A
C1523      H1536   1.085       .  S
C1524      C1526   1.445   1_655  S
C1525      N1529   1.157       .  T
C1526      N1530   1.157       .  T
C1527      N1532   1.157       .  T
C1528      N1531   1.158       .  T
C1537      C1538   1.411       .  A
C1537      C1542   1.400       .  A
C1537      C1551   1.442       .  S
C1538      C1543   1.488   1_455  S
C1538      C1539   1.401       .  A
C1539      C1540   1.401       .  A
C1539      H1558   1.085       .  S
C1540      C1541   1.420       .  A
C1540      C1552   1.444       .  S
C1541      C1542   1.406       .  A
C1542      H1557   1.084       .  S
C1543      C1544   1.400       .  A
C1543      C1548   1.412       .  A
C1544      C1545   1.399       .  A
C1544      H1559   1.085   1_655  S
C1545      C1546   1.419       .  A
C1545      C1549   1.445       .  S
C1546      C1547   1.407       .  A
C1547      C1548   1.401       .  A
C1547      H1560   1.084       .  S
C1548      C1550   1.445       .  S
C1549      N1553   1.158       .  T
C1550      N1554   1.157       .  T
C1551      N1556   1.156       .  T
C1552      N1555   1.157       .  T
C1561      C1562   1.409       .  A
C1561      C1566   1.394       .  A
C1561      C1575   1.445       .  S
C1562      C1567   1.481       .  S
C1562      C1563   1.402       .  A
C1563      C1564   1.403       .  A
C1563      H1582   1.085       .  S
C1564      C1565   1.418       .  A
C1564      C1576   1.444       .  S
C1565      C1566   1.405       .  A
C1566      H1581   1.085       .  S
C1567      C1568   1.403       .  A
C1567      C1572   1.409       .  A
C1568      C1569   1.403       .  A
C1568      H1583   1.085       .  S
C1569      C1570   1.416       .  A
C1569      C1573   1.443       .  S
C1570      C1571   1.406       .  A
C1571      C1572   1.396       .  A
C1571      H1584   1.085       .  S
C1572      C1574   1.445       .  S
C1573      N1577   1.157       .  T
C1574      N1578   1.157       .  T
C1575      N1580   1.157       .  T
C1576      N1579   1.157       .  T
C1585      C1586   1.415   1_655  A
C1585      C1590   1.411       .  A
C1585      C1599   1.443       .  S
C1586      C1591   1.506       .  S
C1586      C1587   1.404   1_455  A
C1587      C1588   1.403       .  A
C1587      H1606   1.085   1_655  S
C1588      C1589   1.420       .  A
C1588      C1600   1.444       .  S
C1589      C1590   1.411       .  A
C1590      H1605   1.084       .  S
C1591      C1592   1.411       .  A
C1591      C1596   1.414       .  A
C1592      C1593   1.413       .  A
C1592      H1607   1.084       .  S
C1593      C1594   1.414       .  A
C1593      C1597   1.443       .  S
C1594      C1595   1.406       .  A
C1595      C1596   1.400       .  A
C1595      H1608   1.085       .  S
C1596      C1598   1.445       .  S
C1597      N1601   1.157       .  T
C1598      N1602   1.157   1_455  T
C1599      N1604   1.157   1_655  T
C1600      N1603   1.157       .  T
C1609      C1610   1.412       .  A
C1609      C1614   1.396       .  A
C1609      C1623   1.445       .  S
C1610      C1615   1.490       .  S
C1610      C1611   1.405       .  A
C1611      C1612   1.404       .  A
C1611      H1630   1.085       .  S
C1612      C1613   1.416       .  A
C1612      C1624   1.444       .  S
C1613      C1614   1.405       .  A
C1614      H1629   1.085       .  S
C1615      C1616   1.405       .  A
C1615      C1620   1.412       .  A
C1616      C1617   1.404       .  A
C1616      H1631   1.085       .  S
C1617      C1618   1.417       .  A
C1617      C1621   1.443       .  S
C1618      C1619   1.406       .  A
C1619      C1620   1.396       .  A
C1619      H1632   1.085       .  S
C1620      C1622   1.445       .  S
C1621      N1625   1.157       .  T
C1622      N1626   1.157       .  T
C1623      N1628   1.157       .  T
C1624      N1627   1.157       .  T
C1633      C1634   1.410       .  A
C1633      C1638   1.397       .  A
C1633      C1647   1.445       .  S
C1634      C1639   1.482       .  S
C1634      C1635   1.401       .  A
C1635      C1636   1.401       .  A
C1635      H1654   1.085       .  S
C1636      C1637   1.417       .  A
C1636      C1648   1.444       .  S
C1637      C1638   1.406       .  A
C1638      H1653   1.084       .  S
C1639      C1640   1.399   1_455  A
C1639      C1644   1.410       .  A
C1640      C1641   1.400       .  A
C1640      H1655   1.085       .  S
C1641      C1642   1.420       .  A
C1641      C1645   1.445       .  S
C1642      C1643   1.405   1_655  A
C1643      C1644   1.399       .  A
C1643      H1656   1.084       .  S
C1644      C1646   1.444       .  S
C1645      N1649   1.158       .  T
C1646      N1650   1.157       .  T
C1647      N1652   1.157       .  T
C1648      N1651   1.157       .  T
C1657      C1658   1.413       .  A
C1657      C1662   1.406       .  A
C1657      C1671   1.444       .  S
C1658      C1663   1.502   1_455  S
C1658      C1659   1.405       .  A
C1659      C1660   1.407       .  A
C1659      H1678   1.085       .  S
C1660      C1661   1.418       .  A
C1660      C1672   1.444       .  S
C1661      C1662   1.410       .  A
C1662      H1677   1.084       .  S
C1663      C1664   1.405       .  A
C1663      C1668   1.411       .  A
C1664      C1665   1.409       .  A
C1664      H1679   1.085       .  S
C1665      C1666   1.417       .  A
C1665      C1669   1.442       .  S
C1666      C1667   1.412       .  A
C1667      C1668   1.408       .  A
C1667      H1680   1.084       .  S
C1668      C1670   1.443   1_655  S
C1669      N1673   1.157       .  T
C1670      N1674   1.157       .  T
C1671      N1676   1.157       .  T
C1672      N1675   1.157       .  T
C1681      C1682   1.410       .  A
C1681      C1686   1.399       .  A
C1681      C1695   1.444       .  S
C1682      C1687   1.478   1_655  S
C1682      C1683   1.397       .  A
C1683      C1684   1.398       .  A
C1683      H1702   1.085       .  S
C1684      C1685   1.420       .  A
C1684      C1696   1.445       .  S
C1685      C1686   1.405       .  A
C1686      H1701   1.085       .  S
C1687      C1688   1.399       .  A
C1687      C1692   1.410       .  A
C1688      C1689   1.400       .  A
C1688      H1703   1.085       .  S
C1689      C1690   1.418       .  A
C1689      C1693   1.445       .  S
C1690      C1691   1.405       .  A
C1691      C1692   1.396       .  A
C1691      H1704   1.084       .  S
C1692      C1694   1.445       .  S
C1693      N1697   1.157       .  T
C1694      N1698   1.157       .  T
C1695      N1700   1.157       .  T
C1696      N1699   1.157       .  T
C1705      C1706   1.413       .  A
C1705      C1710   1.404       .  A
C1705      C1719   1.444       .  S
C1706      C1711   1.487       .  S
C1706      C1707   1.402       .  A
C1707      C1708   1.394       .  A
C1707      H1726   1.085       .  S
C1708      C1709   1.413       .  A
C1708      C1720   1.445       .  S
C1709      C1710   1.406       .  A
C1710      H1725   1.084       .  S
C1711      C1712   1.402       .  A
C1711      C1716   1.412       .  A
C1712      C1713   1.397       .  A
C1712      H1727   1.085       .  S
C1713      C1714   1.417       .  A
C1713      C1717   1.445       .  S
C1714      C1715   1.406       .  A
C1715      C1716   1.401       .  A
C1715      H1728   1.084       .  S
C1716      C1718   1.444       .  S
C1717      N1721   1.157       .  T
C1718      N1722   1.157       .  T
C1719      N1724   1.157       .  T
C1720      N1723   1.157       .  T
C1729      C1730   1.414       .  A
C1729      C1734   1.408       .  A
C1729      C1743   1.444       .  S
C1730      C1735   1.507       .  S
C1730      C1731   1.406       .  A
C1731      C1732   1.409       .  A
C1731      H1750   1.085       .  S
C1732      C1733   1.418       .  A
C1732      C1744   1.442       .  S
C1733      C1734   1.411       .  A
C1734      H1749   1.084       .  S
C1735      C1736   1.403       .  A
C1735      C1740   1.417       .  A
C1736      C1737   1.404       .  A
C1736      H1751   1.085       .  S
C1737      C1738   1.422       .  A
C1737      C1741   1.445       .  S
C1738      C1739   1.408       .  A
C1739      C1740   1.411       .  A
C1739      H1752   1.084       .  S
C1740      C1742   1.444       .  S
C1741      N1745   1.158       .  T
C1742      N1746   1.157       .  T
C1743      N1748   1.157       .  T
C1744      N1747   1.157       .  T
C1753      C1754   1.414       .  A
C1753      C1758   1.400       .  A
C1753      C1767   1.445       .  S
C1754      C1759   1.489       .  S
C1754      C1755   1.405       .  A
C1755      C1756   1.400       .  A
C1755      H1774   1.084       .  S
C1756      C1757   1.410       .  A
C1756      C1768   1.444       .  S
C1757      C1758   1.403       .  A
C1758      H1773   1.085       .  S
C1759      C1760   1.403       .  A
C1759      C1764   1.411       .  A
C1760      C1761   1.398       .  A
C1760      H1775   1.085       .  S
C1761      C1762   1.415       .  A
C1761      C1765   1.444       .  S
C1762      C1763   1.408       .  A
C1763      C1764   1.401       .  A
C1763      H1776   1.084       .  S
C1764      C1766   1.444       .  S
C1765      N1769   1.157       .  T
C1766      N1770   1.157       .  T
C1767      N1772   1.157       .  T
C1768      N1771   1.157       .  T
C1777      C1778   1.411   1_565  A
C1777      C1782   1.398       .  A
C1777      C1791   1.444   1_565  S
C1778      C1783   1.490       .  S
C1778      C1779   1.407   1_545  A
C1779      C1780   1.401       .  A
C1779      H1798   1.085       .  S
C1780      C1781   1.411       .  A
C1780      C1792   1.443       .  S
C1781      C1782   1.407       .  A
C1782      H1797   1.085       .  S
C1783      C1784   1.403       .  A
C1783      C1788   1.412       .  A
C1784      C1785   1.398       .  A
C1784      H1799   1.085       .  S
C1785      C1786   1.418       .  A
C1785      C1789   1.445       .  S
C1786      C1787   1.406       .  A
C1787      C1788   1.400       .  A
C1787      H1800   1.085       .  S
C1788      C1790   1.444       .  S
C1789      N1793   1.157       .  T
C1790      N1794   1.157       .  T
C1791      N1796   1.157       .  T
C1792      N1795   1.157       .  T
C1801      C1802   1.416       .  A
C1801      C1806   1.410       .  A
C1801      C1815   1.444       .  S
C1802      C1807   1.506       .  S
C1802      C1803   1.404       .  A
C1803      C1804   1.403       .  A
C1803      H1822   1.085       .  S
C1804      C1805   1.419       .  A
C1804      C1816   1.445       .  S
C1805      C1806   1.408       .  A
C1806      H1821   1.084       .  S
C1807      C1808   1.408       .  A
C1807      C1812   1.414       .  A
C1808      C1809   1.410       .  A
C1808      H1823   1.084       .  S
C1809      C1810   1.418       .  A
C1809      C1813   1.443       .  S
C1810      C1811   1.410       .  A
C1811      C1812   1.404       .  A
C1811      H1824   1.084       .  S
C1812      C1814   1.445       .  S
C1813      N1817   1.157       .  T
C1814      N1818   1.157       .  T
C1815      N1820   1.157       .  T
C1816      N1819   1.157       .  T
C1825      C1826   1.405   1_565  A
C1825      C1830   1.394       .  A
C1825      C1839   1.444       .  S
C1826      C1831   1.475       .  S
C1826      C1827   1.404       .  A
C1827      C1828   1.400       .  A
C1827      H1846   1.085       .  S
C1828      C1829   1.412   1_545  A
C1828      C1840   1.444       .  S
C1829      C1830   1.407       .  A
C1830      H1845   1.085       .  S
C1831      C1832   1.398       .  A
C1831      C1836   1.408       .  A
C1832      C1833   1.396       .  A
C1832      H1847   1.085       .  S
C1833      C1834   1.419       .  A
C1833      C1837   1.445       .  S
C1834      C1835   1.405       .  A
C1835      C1836   1.397       .  A
C1835      H1848   1.085       .  S
C1836      C1838   1.444   1_545  S
C1837      N1841   1.157       .  T
C1838      N1842   1.157       .  T
C1839      N1844   1.157       .  T
C1840      N1843   1.157       .  T
C1849      C1850   1.407       .  A
C1849      C1854   1.401       .  A
C1849      C1863   1.444       .  S
C1850      C1855   1.478       .  S
C1850      C1851   1.400       .  A
C1851      C1852   1.397       .  A
C1851      H1870   1.085       .  S
C1852      C1853   1.415       .  A
C1852      C1864   1.444       .  S
C1853      C1854   1.408       .  A
C1854      H1869   1.084       .  S
C1855      C1856   1.400       .  A
C1855      C1860   1.407       .  A
C1856      C1857   1.399       .  A
C1856      H1871   1.085       .  S
C1857      C1858   1.416       .  A
C1857      C1861   1.444       .  S
C1858      C1859   1.407       .  A
C1859      C1860   1.400       .  A
C1859      H1872   1.084       .  S
C1860      C1862   1.444       .  S
C1861      N1865   1.157       .  T
C1862      N1866   1.157       .  T
C1863      N1868   1.157       .  T
C1864      N1867   1.157       .  T
C1873      C1874   1.412   1_565  A
C1873      C1878   1.399       .  A
C1873      C1887   1.445   1_565  S
C1874      C1879   1.498       .  S
C1874      C1875   1.409   1_545  A
C1875      C1876   1.409       .  A
C1875      H1894   1.084       .  S
C1876      C1877   1.412       .  A
C1876      C1888   1.443       .  S
C1877      C1878   1.405       .  A
C1878      H1893   1.085       .  S
C1879      C1880   1.402       .  A
C1879      C1884   1.413       .  A
C1880      C1881   1.400       .  A
C1880      H1895   1.085       .  S
C1881      C1882   1.420       .  A
C1881      C1885   1.445       .  S
C1882      C1883   1.409       .  A
C1883      C1884   1.409       .  A
C1883      H1896   1.084       .  S
C1884      C1886   1.444       .  S
C1885      N1889   1.157       .  T
C1886      N1890   1.157       .  T
C1887      N1892   1.157       .  T
C1888      N1891   1.157       .  T
C1897      C1898   1.413       .  A
C1897      C1902   1.404       .  A
C1897      C1911   1.444       .  S
C1898      C1903   1.504       .  S
C1898      C1899   1.408       .  A
C1899      C1900   1.410       .  A
C1899      H1918   1.084       .  S
C1900      C1901   1.417       .  A
C1900      C1912   1.443       .  S
C1901      C1902   1.409       .  A
C1902      H1917   1.084       .  S
C1903      C1904   1.404       .  A
C1903      C1908   1.415       .  A
C1904      C1905   1.403       .  A
C1904      H1919   1.085       .  S
C1905      C1906   1.419       .  A
C1905      C1909   1.444       .  S
C1906      C1907   1.409       .  A
C1907      C1908   1.410       .  A
C1907      H1920   1.084       .  S
C1908      C1910   1.444       .  S
C1909      N1913   1.157       .  T
C1910      N1914   1.157       .  T
C1911      N1916   1.157       .  T
C1912      N1915   1.157       .  T
C1921      C1922   1.408       .  A
C1921      C1926   1.397       .  A
C1921      C1935   1.445       .  S
C1922      C1927   1.484       .  S
C1922      C1923   1.403       .  A
C1923      C1924   1.404       .  A
C1923      H1942   1.085       .  S
C1924      C1925   1.417       .  A
C1924      C1936   1.443       .  S
C1925      C1926   1.407       .  A
C1926      H1941   1.085       .  S
C1927      C1928   1.402       .  A
C1927      C1932   1.409       .  A
C1928      C1929   1.403       .  A
C1928      H1943   1.085       .  S
C1929      C1930   1.417       .  A
C1929      C1933   1.444       .  S
C1930      C1931   1.407       .  A
C1931      C1932   1.398       .  A
C1931      H1944   1.085       .  S
C1932      C1934   1.445       .  S
C1933      N1937   1.157       .  T
C1934      N1938   1.157       .  T
C1935      N1940   1.157       .  T
C1936      N1939   1.157       .  T
C1945      C1946   1.408       .  A
C1945      C1950   1.397       .  A
C1945      C1959   1.444       .  S
C1946      C1951   1.479       .  S
C1946      C1947   1.401       .  A
C1947      C1948   1.398       .  A
C1947      H1966   1.085       .  S
C1948      C1949   1.417       .  A
C1948      C1960   1.444       .  S
C1949      C1950   1.408       .  A
C1950      H1965   1.084       .  S
C1951      C1952   1.404   1_545  A
C1951      C1956   1.408   1_545  A
C1952      C1953   1.400       .  A
C1952      H1967   1.085       .  S
C1953      C1954   1.412       .  A
C1953      C1957   1.443       .  S
C1954      C1955   1.407       .  A
C1955      C1956   1.396       .  A
C1955      H1968   1.085       .  S
C1956      C1958   1.445   1_565  S
C1957      N1961   1.157       .  T
C1958      N1962   1.157       .  T
C1959      N1964   1.157       .  T
C1960      N1963   1.157       .  T
C1969      C1970   1.411       .  A
C1969      C1974   1.405       .  A
C1969      C1983   1.444       .  S
C1970      C1975   1.498       .  S
C1970      C1971   1.406       .  A
C1971      C1972   1.408       .  A
C1971      H1990   1.085       .  S
C1972      C1973   1.416       .  A
C1972      C1984   1.443       .  S
C1973      C1974   1.410       .  A
C1974      H1989   1.085       .  S
C1975      C1976   1.406       .  A
C1975      C1980   1.410       .  A
C1976      C1977   1.408       .  A
C1976      H1991   1.085       .  S
C1977      C1978   1.418       .  A
C1977      C1981   1.443       .  S
C1978      C1979   1.411       .  A
C1979      C1980   1.403       .  A
C1979      H1992   1.085       .  S
C1980      C1982   1.444       .  S
C1981      N1985   1.157       .  T
C1982      N1986   1.157       .  T
C1983      N1988   1.157       .  T
C1984      N1987   1.157       .  T
C1993      C1994   1.406       .  A
C1993      C1998   1.396       .  A
C1993      C2007   1.445       .  S
C1994      C1999   1.479       .  S
C1994      C1995   1.403       .  A
C1995      C1996   1.402       .  A
C1995      H2014   1.085   1_545  S
C1996      C1997   1.415       .  A
C1996      C2008   1.443       .  S
C1997      C1998   1.409       .  A
C1998      H2013   1.085       .  S
C1999      C2000   1.401       .  A
C1999      C2004   1.408   1_545  A
C2000      C2001   1.399       .  A
C2000      H2015   1.085       .  S
C2001      C2002   1.416   1_545  A
C2001      C2005   1.444       .  S
C2002      C2003   1.408       .  A
C2003      C2004   1.398       .  A
C2003      H2016   1.084       .  S
C2004      C2006   1.444       .  S
C2005      N2009   1.157       .  T
C2006      N2010   1.157       .  T
C2007      N2012   1.157       .  T
C2008      N2011   1.157   1_545  T
C2017      C2018   1.407       .  A
C2017      C2022   1.398       .  A
C2017      C2031   1.445       .  S
C2018      C2023   1.480       .  S
C2018      C2019   1.401       .  A
C2019      C2020   1.403       .  A
C2019      H2038   1.085       .  S
C2020      C2021   1.418       .  A
C2020      C2032   1.443       .  S
C2021      C2022   1.408       .  A
C2022      H2037   1.085       .  S
C2023      C2024   1.401       .  A
C2023      C2028   1.407       .  A
C2024      C2025   1.404       .  A
C2024      H2039   1.085       .  S
C2025      C2026   1.418       .  A
C2025      C2029   1.443       .  S
C2026      C2027   1.408       .  A
C2027      C2028   1.396       .  A
C2027      H2040   1.084       .  S
C2028      C2030   1.445       .  S
C2029      N2033   1.157       .  T
C2030      N2034   1.157       .  T
C2031      N2036   1.157       .  T
C2032      N2035   1.157       .  T
C2041      C2042   1.413       .  A
C2041      C2046   1.408       .  A
C2041      C2055   1.444       .  S
C2042      C2047   1.506       .  S
C2042      C2043   1.406       .  A
C2043      C2044   1.409       .  A
C2043      H2062   1.085       .  S
C2044      C2045   1.419       .  A
C2044      C2056   1.444       .  S
C2045      C2046   1.411       .  A
C2046      H2061   1.084       .  S
C2047      C2048   1.406       .  A
C2047      C2052   1.413       .  A
C2048      C2049   1.410       .  A
C2048      H2063   1.085       .  S
C2049      C2050   1.420       .  A
C2049      C2053   1.443       .  S
C2050      C2051   1.412       .  A
C2051      C2052   1.409       .  A
C2051      H2064   1.084       .  S
C2052      C2054   1.444       .  S
C2053      N2057   1.157       .  T
C2054      N2058   1.157       .  T
C2055      N2060   1.157       .  T
C2056      N2059   1.157       .  T
C2065      C2066   1.412       .  A
C2065      C2070   1.402       .  A
C2065      C2079   1.444       .  S
C2066      C2071   1.504   1_545  S
C2066      C2067   1.407       .  A
C2067      C2068   1.411       .  A
C2067      H2086   1.083       .  S
C2068      C2069   1.420       .  A
C2068      C2080   1.444       .  S
C2069      C2070   1.409       .  A
C2070      H2085   1.084       .  S
C2071      C2072   1.404       .  A
C2071      C2076   1.414       .  A
C2072      C2073   1.403       .  A
C2072      H2087   1.085   1_565  S
C2073      C2074   1.421       .  A
C2073      C2077   1.444       .  S
C2074      C2075   1.410       .  A
C2075      C2076   1.410       .  A
C2075      H2088   1.084       .  S
C2076      C2078   1.444       .  S
C2077      N2081   1.157       .  T
C2078      N2082   1.157       .  T
C2079      N2084   1.157       .  T
C2080      N2083   1.158       .  T
C2089      C2090   1.411       .  A
C2089      C2094   1.397       .  A
C2089      C2103   1.445       .  S
C2090      C2095   1.489       .  S
C2090      C2091   1.405       .  A
C2091      C2092   1.404       .  A
C2091      H2110   1.085       .  S
C2092      C2093   1.414       .  A
C2092      C2104   1.444       .  S
C2093      C2094   1.405       .  A
C2094      H2109   1.085       .  S
C2095      C2096   1.403       .  A
C2095      C2100   1.411       .  A
C2096      C2097   1.404       .  A
C2096      H2111   1.085       .  S
C2097      C2098   1.418       .  A
C2097      C2101   1.443       .  S
C2098      C2099   1.407       .  A
C2099      C2100   1.398       .  A
C2099      H2112   1.084       .  S
C2100      C2102   1.445       .  S
C2101      N2105   1.157       .  T
C2102      N2106   1.157       .  T
C2103      N2108   1.157       .  T
C2104      N2107   1.157       .  T
C2113      C2114   1.410       .  A
C2113      C2118   1.395       .  A
C2113      C2127   1.445       .  S
C2114      C2119   1.484   1_565  S
C2114      C2115   1.405       .  A
C2115      C2116   1.401       .  A
C2115      H2134   1.085       .  S
C2116      C2117   1.412       .  A
C2116      C2128   1.444       .  S
C2117      C2118   1.405       .  A
C2118      H2133   1.085       .  S
C2119      C2120   1.403       .  A
C2119      C2124   1.409       .  A
C2120      C2121   1.400       .  A
C2120      H2135   1.085       .  S
C2121      C2122   1.417       .  A
C2121      C2125   1.444       .  S
C2122      C2123   1.407       .  A
C2123      C2124   1.396       .  A
C2123      H2136   1.084       .  S
C2124      C2126   1.445       .  S
C2125      N2129   1.157       .  T
C2126      N2130   1.157       .  T
C2127      N2132   1.157   1_565  T
C2128      N2131   1.157       .  T
C2137      C2138   1.412       .  A
C2137      C2142   1.398       .  A
C2137      C2151   1.445       .  S
C2138      C2143   1.503       .  S
C2138      C2139   1.410       .  A
C2139      C2140   1.412       .  A
C2139      H2158   1.084       .  S
C2140      C2141   1.416       .  A
C2140      C2152   1.443       .  S
C2141      C2142   1.409       .  A
C2142      H2157   1.084       .  S
C2143      C2144   1.406       .  A
C2143      C2148   1.414       .  A
C2144      C2145   1.402       .  A
C2144      H2159   1.085       .  S
C2145      C2146   1.417       .  A
C2145      C2149   1.444       .  S
C2146      C2147   1.410       .  A
C2147      C2148   1.408       .  A
C2147      H2160   1.084       .  S
C2148      C2150   1.444       .  S
C2149      N2153   1.157       .  T
C2150      N2154   1.157       .  T
C2151      N2156   1.157       .  T
C2152      N2155   1.157       .  T
C2161      C2162   1.403       .  A
C2161      C2166   1.395       .  A
C2161      C2175   1.444       .  S
C2162      C2167   1.474       .  S
C2162      C2163   1.403       .  A
C2163      C2164   1.399       .  A
C2163      H2182   1.085       .  S
C2164      C2165   1.413       .  A
C2164      C2176   1.444       .  S
C2165      C2166   1.410       .  A
C2166      H2181   1.085       .  S
C2167      C2168   1.399       .  A
C2167      C2172   1.406       .  A
C2168      C2169   1.398       .  A
C2168      H2183   1.085       .  S
C2169      C2170   1.417       .  A
C2169      C2173   1.444       .  S
C2170      C2171   1.408       .  A
C2171      C2172   1.399       .  A
C2171      H2184   1.084       .  S
C2172      C2174   1.444       .  S
C2173      N2177   1.157       .  T
C2174      N2178   1.157       .  T
C2175      N2180   1.157       .  T
C2176      N2179   1.157       .  T
C2185      C2186   1.410       .  A
C2185      C2190   1.402       .  A
C2185      C2199   1.444       .  S
C2186      C2191   1.488       .  S
C2186      C2187   1.402       .  A
C2187      C2188   1.399       .  A
C2187      H2206   1.085       .  S
C2188      C2189   1.417       .  A
C2188      C2200   1.445       .  S
C2189      C2190   1.407       .  A
C2190      H2205   1.084       .  S
C2191      C2192   1.402       .  A
C2191      C2196   1.411       .  A
C2192      C2193   1.397       .  A
C2192      H2207   1.085       .  S
C2193      C2194   1.414       .  A
C2193      C2197   1.444       .  S
C2194      C2195   1.408       .  A
C2195      C2196   1.405       .  A
C2195      H2208   1.084       .  S
C2196      C2198   1.444       .  S
C2197      N2201   1.157       .  T
C2198      N2202   1.157       .  T
C2199      N2204   1.157       .  T
C2200      N2203   1.157       .  T
C2209      C2210   1.416   1_565  A
C2209      C2214   1.409       .  A
C2209      C2223   1.444       .  S
C2210      C2215   1.501       .  S
C2210      C2211   1.402   1_545  A
C2211      C2212   1.402       .  A
C2211      H2230   1.085   1_565  S
C2212      C2213   1.421       .  A
C2212      C2224   1.445       .  S
C2213      C2214   1.407       .  A
C2214      H2229   1.084       .  S
C2215      C2216   1.407       .  A
C2215      C2220   1.414       .  A
C2216      C2217   1.408       .  A
C2216      H2231   1.085       .  S
C2217      C2218   1.418       .  A
C2217      C2221   1.444       .  S
C2218      C2219   1.407       .  A
C2219      C2220   1.402       .  A
C2219      H2232   1.085       .  S
C2220      C2222   1.444       .  S
C2221      N2225   1.157       .  T
C2222      N2226   1.157       .  T
C2223      N2228   1.157       .  T
C2224      N2227   1.157       .  T
C2233      C2234   1.415       .  A
C2233      C2238   1.408       .  A
C2233      C2247   1.444       .  S
C2234      C2239   1.507       .  S
C2234      C2235   1.406       .  A
C2235      C2236   1.409       .  A
C2235      H2254   1.085       .  S
C2236      C2237   1.419       .  A
C2236      C2248   1.443       .  S
C2237      C2238   1.410       .  A
C2238      H2253   1.084       .  S
C2239      C2240   1.408       .  A
C2239      C2244   1.413       .  A
C2240      C2241   1.410       .  A
C2240      H2255   1.085       .  S
C2241      C2242   1.417       .  A
C2241      C2245   1.443       .  S
C2242      C2243   1.410       .  A
C2243      C2244   1.406       .  A
C2243      H2256   1.085       .  S
C2244      C2246   1.444       .  S
C2245      N2249   1.157       .  T
C2246      N2250   1.157       .  T
C2247      N2252   1.157       .  T
C2248      N2251   1.157       .  T
C2257      C2258   1.412       .  A
C2257      C2262   1.402       .  A
C2257      C2271   1.443       .  S
C2258      C2263   1.489       .  S
C2258      C2259   1.404       .  A
C2259      C2260   1.395       .  A
C2259      H2278   1.085       .  S
C2260      C2261   1.416       .  A
C2260      C2272   1.445       .  S
C2261      C2262   1.406       .  A
C2262      H2277   1.084       .  S
C2263      C2264   1.405       .  A
C2263      C2268   1.413       .  A
C2264      C2265   1.396       .  A
C2264      H2279   1.084       .  S
C2265      C2266   1.411       .  A
C2265      C2269   1.445       .  S
C2266      C2267   1.404       .  A
C2267      C2268   1.401       .  A
C2267      H2280   1.084       .  S
C2268      C2270   1.444       .  S
C2269      N2273   1.157       .  T
C2270      N2274   1.157       .  T
C2271      N2276   1.157       .  T
C2272      N2275   1.158       .  T
C2281      C2282   1.410       .  A
C2281      C2286   1.406       .  A
C2281      C2295   1.444       .  S
C2282      C2287   1.497       .  S
C2282      C2283   1.404       .  A
C2283      C2284   1.409       .  A
C2283      H2302   1.085       .  S
C2284      C2285   1.417       .  A
C2284      C2296   1.443       .  S
C2285      C2286   1.411       .  A
C2286      H2301   1.085       .  S
C2287      C2288   1.405       .  A
C2287      C2292   1.409       .  A
C2288      C2289   1.410       .  A
C2288      H2303   1.085       .  S
C2289      C2290   1.420       .  A
C2289      C2293   1.444       .  S
C2290      C2291   1.410       .  A
C2291      C2292   1.404       .  A
C2291      H2304   1.084       .  S
C2292      C2294   1.444       .  S
C2293      N2297   1.158       .  T
C2294      N2298   1.157       .  T
C2295      N2300   1.157       .  T
C2296      N2299   1.157       .  T
C2305      C2306   1.408       .  A
C2305      C2310   1.397       .  A
C2305      C2319   1.445   1_545  S
C2306      C2311   1.476       .  S
C2306      C2307   1.398       .  A
C2307      C2308   1.399       .  A
C2307      H2326   1.085       .  S
C2308      C2309   1.419       .  A
C2308      C2320   1.445       .  S
C2309      C2310   1.406       .  A
C2310      H2325   1.084       .  S
C2311      C2312   1.397   1_545  A
C2311      C2316   1.408       .  A
C2312      C2313   1.399       .  A
C2312      H2327   1.085       .  S
C2313      C2314   1.420       .  A
C2313      C2317   1.444       .  S
C2314      C2315   1.406   1_565  A
C2315      C2316   1.397       .  A
C2315      H2328   1.085       .  S
C2316      C2318   1.445       .  S
C2317      N2321   1.157       .  T
C2318      N2322   1.157       .  T
C2319      N2324   1.157       .  T
C2320      N2323   1.157       .  T
C2329      C2330   1.414       .  A
C2329      C2334   1.402       .  A
C2329      C2343   1.445       .  S
C2330      C2335   1.503   1_545  S
C2330      C2331   1.408       .  A
C2331      C2332   1.409       .  A
C2331      H2350   1.084       .  S
C2332      C2333   1.415       .  A
C2332      C2344   1.443       .  S
C2333      C2334   1.407       .  A
C2334      H2349   1.085       .  S
C2335      C2336   1.403       .  A
C2335      C2340   1.416       .  A
C2336      C2337   1.401       .  A
C2336      H2351   1.085       .  S
C2337      C2338   1.421       .  A
C2337      C2341   1.445       .  S
C2338      C2339   1.408       .  A
C2339      C2340   1.409       .  A
C2339      H2352   1.084       .  S
C2340      C2342   1.443       .  S
C2341      N2345   1.157       .  T
C2342      N2346   1.157       .  T
C2343      N2348   1.157       .  T
C2344      N2347   1.157       .  T
C2353      C2354   1.410       .  A
C2353      C2358   1.397       .  A
C2353      C2367   1.445       .  S
C2354      C2359   1.481   1_545  S
C2354      C2355   1.399       .  A
C2355      C2356   1.401       .  A
C2355      H2374   1.085       .  S
C2356      C2357   1.419       .  A
C2356      C2368   1.445       .  S
C2357      C2358   1.405       .  A
C2358      H2373   1.084       .  S
C2359      C2360   1.399       .  A
C2359      C2364   1.410       .  A
C2360      C2361   1.402       .  A
C2360      H2375   1.085   1_565  S
C2361      C2362   1.420       .  A
C2361      C2365   1.444       .  S
C2362      C2363   1.405       .  A
C2363      C2364   1.398       .  A
C2363      H2376   1.085       .  S
C2364      C2366   1.445       .  S
C2365      N2369   1.157       .  T
C2366      N2370   1.157   1_565  T
C2367      N2372   1.157       .  T
C2368      N2371   1.158       .  T
C2377      C2378   1.412       .  A
C2377      C2382   1.402       .  A
C2377      C2391   1.444       .  S
C2378      C2383   1.489       .  S
C2378      C2379   1.403       .  A
C2379      C2380   1.396       .  A
C2379      H2398   1.085       .  S
C2380      C2381   1.416       .  A
C2380      C2392   1.445       .  S
C2381      C2382   1.407       .  A
C2382      H2397   1.084       .  S
C2383      C2384   1.403       .  A
C2383      C2388   1.412       .  A
C2384      C2385   1.398       .  A
C2384      H2399   1.085       .  S
C2385      C2386   1.416       .  A
C2385      C2389   1.445       .  S
C2386      C2387   1.406       .  A
C2387      C2388   1.402       .  A
C2387      H2400   1.084       .  S
C2388      C2390   1.444       .  S
C2389      N2393   1.157       .  T
C2390      N2394   1.157       .  T
C2391      N2396   1.157       .  T
C2392      N2395   1.157       .  T
C2401      C2402   1.404       .  A
C2401      C2406   1.402       .  A
C2401      C2415   1.444   1_455  S
C2402      C2407   1.498       .  S
C2402      C2403   1.402       .  A
C2403      C2404   1.410       .  A
C2403      H2422   1.085       .  S
C2404      C2405   1.432       .  A
C2404      C2416   1.444       .  S
C2405      C2406   1.422       .  A
C2406      H2421   1.078   1_455  S
C2407      C2408   1.402       .  A
C2407      C2412   1.416       .  A
C2408      C2409   1.406       .  A
C2408      H2423   1.085       .  S
C2409      C2410   1.419       .  A
C2409      C2413   1.444       .  S
C2410      C2411   1.404       .  A
C2411      C2412   1.406       .  A
C2411      H2424   1.085       .  S
C2412      C2414   1.444       .  S
C2413      N2417   1.157       .  T
C2414      N2418   1.157       .  T
C2415      N2420   1.157       .  T
C2416      N2419   1.157       .  T
C2425      C2426   1.403       .  A
C2425      C2430   1.406       .  A
C2425      C2439   1.443       .  S
C2426      C2431   1.493       .  S
C2426      C2427   1.399       .  A
C2427      C2428   1.404       .  A
C2427      H2446   1.085       .  S
C2428      C2429   1.432   1_565  A
C2428      C2440   1.444   1_565  S
C2429      C2430   1.423   1_545  A
C2430      H2445   1.080       .  S
C2431      C2432   1.388       .  A
C2431      C2436   1.405       .  A
C2432      C2433   1.403       .  A
C2432      H2447   1.087       .  S
C2433      C2434   1.444       .  A
C2433      C2437   1.438       .  S
C2434      C2435   1.425       .  A
C2435      C2436   1.408       .  A
C2435      H2448   1.084       .  S
C2436      C2438   1.443       .  S
C2437      N2441   1.157       .  T
C2438      N2442   1.157       .  T
C2439      N2444   1.157       .  T
C2440      N2443   1.158       .  T
C2449      C2450   1.400       .  A
C2449      C2454   1.396       .  A
C2449      C2463   1.447       .  S
C2450      C2455   1.497       .  S
C2450      C2451   1.404       .  A
C2451      C2452   1.416       .  A
C2451      H2470   1.084       .  S
C2452      C2453   1.431       .  A
C2452      C2464   1.443   1_545  S
C2453      C2454   1.425       .  A
C2454      H2469   1.074       .  S
C2455      C2456   1.403       .  A
C2455      C2460   1.414       .  A
C2456      C2457   1.406       .  A
C2456      H2471   1.085       .  S
C2457      C2458   1.416       .  A
C2457      C2461   1.443       .  S
C2458      C2459   1.406       .  A
C2459      C2460   1.407       .  A
C2459      H2472   1.085       .  S
C2460      C2462   1.444       .  S
C2461      N2465   1.157       .  T
C2462      N2466   1.157       .  T
C2463      N2468   1.157       .  T
C2464      N2467   1.157       .  T
C2473      C2474   1.401       .  A
C2473      C2478   1.401       .  A
C2473      C2487   1.445       .  S
C2474      C2479   1.494       .  S
C2474      C2475   1.401       .  A
C2475      C2476   1.403       .  A
C2475      H2494   1.085       .  S
C2476      C2477   1.432       .  A
C2476      C2488   1.445       .  S
C2477      C2478   1.428       .  A
C2478      H2493   1.077       .  S
C2479      C2480   1.401       .  A
C2479      C2484   1.406       .  A
C2480      C2481   1.406       .  A
C2480      H2495   1.084       .  S
C2481      C2482   1.432       .  A
C2481      C2485   1.443       .  S
C2482      C2483   1.417       .  A
C2483      C2484   1.400       .  A
C2483      H2496   1.079       .  S
C2484      C2486   1.444       .  S
C2485      N2489   1.157       .  T
C2486      N2490   1.157       .  T
C2487      N2492   1.157       .  T
C2488      N2491   1.157       .  T
C2497      C2498   1.407   1_455  A
C2497      C2502   1.409       .  A
C2497      C2511   1.443       .  S
C2498      C2503   1.503       .  S
C2498      C2499   1.401       .  A
C2499      C2500   1.411       .  A
C2499      H2518   1.085       .  S
C2500      C2501   1.432   1_655  A
C2500      C2512   1.444       .  S
C2501      C2502   1.419       .  A
C2502      H2517   1.080       .  S
C2503      C2504   1.401       .  A
C2503      C2508   1.413       .  A
C2504      C2505   1.408       .  A
C2504      H2519   1.085   1_655  S
C2505      C2506   1.424       .  A
C2505      C2509   1.443   1_655  S
C2506      C2507   1.410       .  A
C2507      C2508   1.411       .  A
C2507      H2520   1.084       .  S
C2508      C2510   1.443       .  S
C2509      N2513   1.157       .  T
C2510      N2514   1.157       .  T
C2511      N2516   1.157       .  T
C2512      N2515   1.157       .  T
C2521      C2522   1.407       .  A
C2521      C2526   1.400       .  A
C2521      C2535   1.444       .  S
C2522      C2527   1.493       .  S
C2522      C2523   1.394       .  A
C2523      C2524   1.405       .  A
C2523      H2542   1.085       .  S
C2524      C2525   1.441       .  A
C2524      C2536   1.442       .  S
C2525      C2526   1.416       .  A
C2526      H2541   1.079       .  S
C2527      C2528   1.400       .  A
C2527      C2532   1.399       .  A
C2528      C2529   1.410       .  A
C2528      H2543   1.086       .  S
C2529      C2530   1.438       .  A
C2529      C2533   1.445       .  S
C2530      C2531   1.426       .  A
C2531      C2532   1.396       .  A
C2531      H2544   1.075       .  S
C2532      C2534   1.447       .  S
C2533      N2537   1.158   1_655  T
C2534      N2538   1.157       .  T
C2535      N2540   1.157       .  T
C2536      N2539   1.157       .  T
C2545      C2546   1.406       .  A
C2545      C2550   1.408       .  A
C2545      C2559   1.443       .  S
C2546      C2551   1.500       .  S
C2546      C2547   1.400       .  A
C2547      C2548   1.401   1_655  A
C2547      H2566   1.086       .  S
C2548      C2549   1.434       .  A
C2548      C2560   1.445       .  S
C2549      C2550   1.424   1_455  A
C2550      H2565   1.078       .  S
C2551      C2552   1.393       .  A
C2551      C2556   1.409       .  A
C2552      C2553   1.396       .  A
C2552      H2567   1.087       .  S
C2553      C2554   1.441       .  A
C2553      C2557   1.443       .  S
C2554      C2555   1.422       .  A
C2555      C2556   1.413       .  A
C2555      H2568   1.083       .  S
C2556      C2558   1.442       .  S
C2557      N2561   1.157       .  T
C2558      N2562   1.157       .  T
C2559      N2564   1.157       .  T
C2560      N2563   1.157       .  T
C2569      C2570   1.417       .  A
C2569      C2574   1.405       .  A
C2569      C2583   1.444       .  S
C2570      C2575   1.506       .  S
C2570      C2571   1.405       .  A
C2571      C2572   1.408       .  A
C2571      H2590   1.085   1_565  S
C2572      C2573   1.421       .  A
C2572      C2584   1.444   1_565  S
C2573      C2574   1.406       .  A
C2574      H2589   1.084       .  S
C2575      C2576   1.401       .  A
C2575      C2580   1.413   1_565  A
C2576      C2577   1.406       .  A
C2576      H2591   1.085       .  S
C2577      C2578   1.433   1_565  A
C2577      C2581   1.444       .  S
C2578      C2579   1.418       .  A
C2579      C2580   1.408       .  A
C2579      H2592   1.079       .  S
C2580      C2582   1.443       .  S
C2581      N2585   1.157       .  T
C2582      N2586   1.157       .  T
C2583      N2588   1.157       .  T
C2584      N2587   1.157       .  T
C2593      C2594   1.410       .  A
C2593      C2598   1.411       .  A
C2593      C2607   1.443       .  S
C2594      C2599   1.499       .  S
C2594      C2595   1.394       .  A
C2595      C2596   1.398       .  A
C2595      H2614   1.086       .  S
C2596      C2597   1.436       .  A
C2596      C2608   1.444       .  S
C2597      C2598   1.420       .  A
C2598      H2613   1.078       .  S
C2599      C2600   1.406       .  A
C2599      C2604   1.410       .  A
C2600      C2601   1.406       .  A
C2600      H2615   1.085       .  S
C2601      C2602   1.417       .  A
C2601      C2605   1.443       .  S
C2602      C2603   1.413       .  A
C2603      C2604   1.407       .  A
C2603      H2616   1.084       .  S
C2604      C2606   1.444       .  S
C2605      N2609   1.157       .  T
C2606      N2610   1.157   1_556  T
C2607      N2612   1.157       .  T
C2608      N2611   1.157       .  T
C2617      C2618   1.403       .  A
C2617      C2622   1.402       .  A
C2617      C2631   1.443   1_455  S
C2618      C2623   1.503       .  S
C2618      C2619   1.404       .  A
C2619      C2620   1.415       .  A
C2619      H2638   1.085       .  S
C2620      C2621   1.434       .  A
C2620      C2632   1.442       .  S
C2621      C2622   1.423       .  A
C2622      H2637   1.084   1_455  S
C2623      C2624   1.402   1_455  A
C2623      C2628   1.406       .  A
C2624      C2625   1.411       .  A
C2624      H2639   1.085       .  S
C2625      C2626   1.432   1_655  A
C2625      C2629   1.441       .  S
C2626      C2627   1.423       .  A
C2627      C2628   1.408       .  A
C2627      H2640   1.084       .  S
C2628      C2630   1.443       .  S
C2629      N2633   1.158       .  T
C2630      N2634   1.157       .  T
C2631      N2636   1.157       .  T
C2632      N2635   1.158       .  T
C2641      C2642   1.403       .  A
C2641      C2646   1.398       .  A
C2641      C2655   1.447       .  S
C2642      C2647   1.496       .  S
C2642      C2643   1.402       .  A
C2643      C2644   1.409       .  A
C2643      H2662   1.085       .  S
C2644      C2645   1.432       .  A
C2644      C2656   1.444       .  S
C2645      C2646   1.426       .  A
C2646      H2661   1.075       .  S
C2647      C2648   1.400       .  A
C2647      C2652   1.406       .  A
C2648      C2649   1.403       .  A
C2648      H2663   1.085       .  S
C2649      C2650   1.431   1_554  A
C2649      C2653   1.444       .  S
C2650      C2651   1.420       .  A
C2651      C2652   1.401   1_556  A
C2651      H2664   1.075       .  S
C2652      C2654   1.445       .  S
C2653      N2657   1.157       .  T
C2654      N2658   1.157       .  T
C2655      N2660   1.157       .  T
C2656      N2659   1.157       .  T
C2665      C2666   1.413       .  A
C2665      C2670   1.404       .  A
C2665      C2679   1.444       .  S
C2666      C2671   1.495       .  S
C2666      C2667   1.402       .  A
C2667      C2668   1.405       .  A
C2667      H2686   1.085       .  S
C2668      C2669   1.422       .  A
C2668      C2680   1.444       .  S
C2669      C2670   1.406       .  A
C2670      H2685   1.084       .  S
C2671      C2672   1.399       .  A
C2671      C2676   1.407       .  A
C2672      C2673   1.403       .  A
C2672      H2687   1.085       .  S
C2673      C2674   1.431       .  A
C2673      C2677   1.444       .  S
C2674      C2675   1.419       .  A
C2675      C2676   1.404       .  A
C2675      H2688   1.080   1_455  S
C2676      C2678   1.443   1_455  S
C2677      N2681   1.157       .  T
C2678      N2682   1.157       .  T
C2679      N2684   1.157       .  T
C2680      N2683   1.157       .  T
C2689      C2690   1.406       .  A
C2689      C2694   1.411       .  A
C2689      C2703   1.442       .  S
C2690      C2695   1.495       .  S
C2690      C2691   1.389       .  A
C2691      C2692   1.399       .  A
C2691      H2710   1.087       .  S
C2692      C2693   1.445       .  A
C2692      C2704   1.439       .  S
C2693      C2694   1.424       .  A
C2694      H2709   1.084       .  S
C2695      C2696   1.400       .  A
C2695      C2700   1.403       .  A
C2696      C2697   1.402       .  A
C2696      H2711   1.086       .  S
C2697      C2698   1.433   1_655  A
C2697      C2701   1.445   1_655  S
C2698      C2699   1.426   1_455  A
C2699      C2700   1.406       .  A
C2699      H2712   1.079       .  S
C2700      C2702   1.443       .  S
C2701      N2705   1.158       .  T
C2702      N2706   1.157       .  T
C2703      N2708   1.157       .  T
C2704      N2707   1.156       .  T
C2713      C2714   1.410       .  A
C2713      C2718   1.405       .  A
C2713      C2727   1.444       .  S
C2714      C2719   1.504       .  S
C2714      C2715   1.403   1_554  A
C2715      C2716   1.408       .  A
C2715      H2734   1.085       .  S
C2716      C2717   1.432   1_556  A
C2716      C2728   1.442       .  S
C2717      C2718   1.422       .  A
C2718      H2733   1.084       .  S
C2719      C2720   1.408       .  A
C2719      C2724   1.411       .  A
C2720      C2721   1.405       .  A
C2720      H2735   1.083       .  S
C2721      C2722   1.416       .  A
C2721      C2725   1.444       .  S
C2722      C2723   1.412       .  A
C2723      C2724   1.407       .  A
C2723      H2736   1.084       .  S
C2724      C2726   1.444   1_554  S
C2725      N2729   1.157       .  T
C2726      N2730   1.157       .  T
C2727      N2732   1.157       .  T
C2728      N2731   1.158       .  T
C2737      C2738   1.401       .  A
C2737      C2742   1.405       .  A
C2737      C2751   1.443       .  S
C2738      C2743   1.485       .  S
C2738      C2739   1.396       .  A
C2739      C2740   1.400       .  A
C2739      H2758   1.085       .  S
C2740      C2741   1.433       .  A
C2740      C2752   1.444       .  S
C2741      C2742   1.426       .  A
C2742      H2757   1.079       .  S
C2743      C2744   1.395       .  A
C2743      C2748   1.407       .  A
C2744      C2745   1.401       .  A
C2744      H2759   1.085       .  S
C2745      C2746   1.433       .  A
C2745      C2749   1.444       .  S
C2746      C2747   1.415       .  A
C2747      C2748   1.406       .  A
C2747      H2760   1.080       .  S
C2748      C2750   1.443       .  S
C2749      N2753   1.158       .  T
C2750      N2754   1.157       .  T
C2751      N2756   1.157       .  T
C2752      N2755   1.157       .  T
C2761      C2762   1.402       .  A
C2761      C2766   1.406       .  A
C2761      C2775   1.444       .  S
C2762      C2767   1.493       .  S
C2762      C2763   1.396       .  A
C2763      C2764   1.403       .  A
C2763      H2782   1.086       .  S
C2764      C2765   1.435       .  A
C2764      C2776   1.442       .  S
C2765      C2766   1.427       .  A
C2766      H2781   1.078       .  S
C2767      C2768   1.402       .  A
C2767      C2772   1.405       .  A
C2768      C2769   1.408       .  A
C2768      H2783   1.085       .  S
C2769      C2770   1.430       .  A
C2769      C2773   1.443       .  S
C2770      C2771   1.419       .  A
C2771      C2772   1.399       .  A
C2771      H2784   1.080   1_655  S
C2772      C2774   1.445       .  S
C2773      N2777   1.157       .  T
C2774      N2778   1.157       .  T
C2775      N2780   1.157       .  T
C2776      N2779   1.157   1_556  T
C2785      C2786   1.402       .  A
C2785      C2790   1.397       .  A
C2785      C2799   1.446       .  S
C2786      C2791   1.497       .  S
C2786      C2787   1.403   1_655  A
C2787      C2788   1.415       .  A
C2787      H2806   1.084       .  S
C2788      C2789   1.433   1_455  A
C2788      C2800   1.444       .  S
C2789      C2790   1.424       .  A
C2790      H2805   1.074       .  S
C2791      C2792   1.405       .  A
C2791      C2796   1.412       .  A
C2792      C2793   1.410       .  A
C2792      H2807   1.084   1_655  S
C2793      C2794   1.415       .  A
C2793      C2797   1.443   1_655  S
C2794      C2795   1.406       .  A
C2795      C2796   1.404       .  A
C2795      H2808   1.085       .  S
C2796      C2798   1.444       .  S
C2797      N2801   1.157       .  T
C2798      N2802   1.157       .  T
C2799      N2804   1.157       .  T
C2800      N2803   1.157       .  T
C2809      C2810   1.402       .  A
C2809      C2814   1.399       .  A
C2809      C2823   1.446       .  S
C2810      C2815   1.495       .  S
C2810      C2811   1.403   1_556  A
C2811      C2812   1.412       .  A
C2811      H2830   1.085       .  S
C2812      C2813   1.430   1_554  A
C2812      C2824   1.444       .  S
C2813      C2814   1.424       .  A
C2814      H2829   1.077       .  S
C2815      C2816   1.394       .  A
C2815      C2820   1.408       .  A
C2816      C2817   1.404       .  A
C2816      H2831   1.086   1_556  S
C2817      C2818   1.440       .  A
C2817      C2821   1.445   1_556  S
C2818      C2819   1.417       .  A
C2819      C2820   1.408       .  A
C2819      H2832   1.080       .  S
C2820      C2822   1.443       .  S
C2821      N2825   1.158       .  T
C2822      N2826   1.157       .  T
C2823      N2828   1.157       .  T
C2824      N2827   1.157       .  T
C2833      C2834   1.401       .  A
C2833      C2838   1.397   1_554  A
C2833      C2847   1.445       .  S
C2834      C2839   1.492       .  S
C2834      C2835   1.403       .  A
C2835      C2836   1.413   1_554  A
C2835      H2854   1.085       .  S
C2836      C2837   1.430       .  A
C2836      C2848   1.441       .  S
C2837      C2838   1.424       .  A
C2838      H2853   1.083       .  S
C2839      C2840   1.402       .  A
C2839      C2844   1.410       .  A
C2840      C2841   1.406       .  A
C2840      H2855   1.085   1_554  S
C2841      C2842   1.419       .  A
C2841      C2845   1.443   1_554  S
C2842      C2843   1.409       .  A
C2843      C2844   1.405       .  A
C2843      H2856   1.084       .  S
C2844      C2846   1.444       .  S
C2845      N2849   1.157       .  T
C2846      N2850   1.157       .  T
C2847      N2852   1.157       .  T
C2848      N2851   1.158       .  T
C2857      C2858   1.418       .  A
C2857      C2862   1.412       .  A
C2857      C2871   1.444       .  S
C2858      C2863   1.521       .  S
C2858      C2859   1.405       .  A
C2859      C2860   1.405       .  A
C2859      H2878   1.083       .  S
C2860      C2861   1.430       .  A
C2860      C2872   1.445       .  S
C2861      C2862   1.417       .  A
C2862      H2877   1.081       .  S
C2863      C2864   1.406       .  A
C2863      C2868   1.415       .  A
C2864      C2865   1.411       .  A
C2864      H2879   1.084       .  S
C2865      C2866   1.435       .  A
C2865      C2869   1.442       .  S
C2866      C2867   1.422       .  A
C2867      C2868   1.406       .  A
C2867      H2880   1.084       .  S
C2868      C2870   1.444       .  S
C2869      N2873   1.158       .  T
C2870      N2874   1.157       .  T
C2871      N2876   1.157       .  T
C2872      N2875   1.157       .  T
C2881      C2882   1.409       .  A
C2881      C2886   1.399       .  A
C2881      C2895   1.445       .  S
C2882      C2887   1.502       .  S
C2882      C2883   1.404       .  A
C2883      C2884   1.407       .  A
C2883      H2902   1.085       .  S
C2884      C2885   1.430       .  A
C2884      C2896   1.444       .  S
C2885      C2886   1.423       .  A
C2886      H2901   1.079       .  S
C2887      C2888   1.406       .  A
C2887      C2892   1.408       .  A
C2888      C2889   1.408       .  A
C2888      H2903   1.085       .  S
C2889      C2890   1.429       .  A
C2889      C2893   1.443       .  S
C2890      C2891   1.421       .  A
C2891      C2892   1.398       .  A
C2891      H2904   1.080       .  S
C2892      C2894   1.446       .  S
C2893      N2897   1.157   1_554  T
C2894      N2898   1.157       .  T
C2895      N2900   1.157       .  T
C2896      N2899   1.157       .  T
C2905      C2906   1.405   1_545  A
C2905      C2910   1.405       .  A
C2905      C2919   1.445       .  S
C2906      C2911   1.497       .  S
C2906      C2907   1.399       .  A
C2907      C2908   1.406       .  A
C2907      H2926   1.085       .  S
C2908      C2909   1.435       .  A
C2908      C2920   1.445       .  S
C2909      C2910   1.423   1_565  A
C2910      H2925   1.077       .  S
C2911      C2912   1.401       .  A
C2911      C2916   1.413       .  A
C2912      C2913   1.404       .  A
C2912      H2927   1.085   1_565  S
C2913      C2914   1.422       .  A
C2913      C2917   1.444       .  S
C2914      C2915   1.408       .  A
C2915      C2916   1.409       .  A
C2915      H2928   1.084       .  S
C2916      C2918   1.444       .  S
C2917      N2921   1.157   1_565  T
C2918      N2922   1.157       .  T
C2919      N2924   1.157       .  T
C2920      N2923   1.157       .  T
C2929      C2930   1.399       .  A
C2929      C2934   1.388       .  A
C2929      C2943   1.446       .  S
C2930      C2935   1.489       .  S
C2930      C2931   1.405       .  A
C2931      C2932   1.414       .  A
C2931      H2950   1.085       .  S
C2932      C2933   1.430       .  A
C2932      C2944   1.440       .  S
C2933      C2934   1.426       .  A
C2934      H2949   1.081       .  S
C2935      C2936   1.397       .  A
C2935      C2940   1.408       .  A
C2936      C2937   1.406       .  A
C2936      H2951   1.085       .  S
C2937      C2938   1.433       .  A
C2937      C2941   1.444       .  S
C2938      C2939   1.417       .  A
C2939      C2940   1.395       .  A
C2939      H2952   1.077       .  S
C2940      C2942   1.445       .  S
C2941      N2945   1.157       .  T
C2942      N2946   1.157       .  T
C2943      N2948   1.157       .  T
C2944      N2947   1.158       .  T
C2953      C2954   1.412       .  A
C2953      C2958   1.405       .  A
C2953      C2967   1.445       .  S
C2954      C2959   1.492       .  S
C2954      C2955   1.400       .  A
C2955      C2956   1.404       .  A
C2955      H2974   1.085       .  S
C2956      C2957   1.422       .  A
C2956      C2968   1.444       .  S
C2957      C2958   1.408       .  A
C2958      H2973   1.084       .  S
C2959      C2960   1.396       .  A
C2959      C2964   1.404       .  A
C2960      C2961   1.402       .  A
C2960      H2975   1.085       .  S
C2961      C2962   1.436       .  A
C2961      C2965   1.445       .  S
C2962      C2963   1.425       .  A
C2963      C2964   1.404       .  A
C2963      H2976   1.077   1_545  S
C2964      C2966   1.445   1_545  S
C2965      N2969   1.157       .  T
C2966      N2970   1.157       .  T
C2967      N2972   1.157       .  T
C2968      N2971   1.157       .  T
C2977      C2978   1.402       .  A
C2977      C2982   1.392       .  A
C2977      C2991   1.447       .  S
C2978      C2983   1.491       .  S
C2978      C2979   1.402       .  A
C2979      C2980   1.413       .  A
C2979      H2998   1.084       .  S
C2980      C2981   1.431       .  A
C2980      C2992   1.445       .  S
C2981      C2982   1.421       .  A
C2982      H2997   1.078   1_554  S
C2983      C2984   1.402       .  A
C2983      C2988   1.403       .  A
C2984      C2985   1.415       .  A
C2984      H2999   1.085       .  S
C2985      C2986   1.435       .  A
C2985      C2989   1.441       .  S
C2986      C2987   1.421       .  A
C2987      C2988   1.389       .  A
C2987      H3000   1.084       .  S
C2988      C2990   1.446       .  S
C2989      N2993   1.158       .  T
C2990      N2994   1.157       .  T
C2991      N2996   1.157       .  T
C2992      N2995   1.157       .  T
C3001      C3002   1.405       .  A
C3001      C3006   1.408       .  A
C3001      C3015   1.442       .  S
C3002      C3007   1.484       .  S
C3002      C3003   1.392       .  A
C3003      C3004   1.392       .  A
C3003      H3022   1.087       .  S
C3004      C3005   1.437       .  A
C3004      C3016   1.444       .  S
C3005      C3006   1.420       .  A
C3006      H3021   1.080       .  S
C3007      C3008   1.391       .  A
C3007      C3012   1.404       .  A
C3008      C3009   1.392       .  A
C3008      H3023   1.087       .  S
C3009      C3010   1.439       .  A
C3009      C3013   1.444   1_565  S
C3010      C3011   1.421       .  A
C3011      C3012   1.408       .  A
C3011      H3024   1.084       .  S
C3012      C3014   1.442       .  S
C3013      N3017   1.157       .  T
C3014      N3018   1.157       .  T
C3015      N3020   1.157       .  T
C3016      N3019   1.157       .  T
C3025      C3026   1.403       .  A
C3025      C3030   1.401       .  A
C3025      C3039   1.444       .  S
C3026      C3031   1.493       .  S
C3026      C3027   1.396       .  A
C3027      C3028   1.406   1_556  A
C3027      H3046   1.086   1_556  S
C3028      C3029   1.439   1_554  A
C3028      C3040   1.440       .  S
C3029      C3030   1.424       .  A
C3030      H3045   1.085       .  S
C3031      C3032   1.408       .  A
C3031      C3036   1.408       .  A
C3032      C3033   1.407       .  A
C3032      H3047   1.085       .  S
C3033      C3034   1.414       .  A
C3033      C3037   1.444       .  S
C3034      C3035   1.408       .  A
C3035      C3036   1.400       .  A
C3035      H3048   1.085       .  S
C3036      C3038   1.444       .  S
C3037      N3041   1.157       .  T
C3038      N3042   1.157   1_556  T
C3039      N3044   1.157       .  T
C3040      N3043   1.158       .  T
C3049      C3050   1.411       .  A
C3049      C3054   1.400       .  A
C3049      C3063   1.444       .  S
C3050      C3055   1.490       .  S
C3050      C3051   1.404       .  A
C3051      C3052   1.407       .  A
C3051      H3070   1.085       .  S
C3052      C3053   1.416       .  A
C3052      C3064   1.443       .  S
C3053      C3054   1.405       .  A
C3054      H3069   1.085       .  S
C3055      C3056   1.401       .  A
C3055      C3060   1.400       .  A
C3056      C3057   1.412       .  A
C3056      H3071   1.085       .  S
C3057      C3058   1.432       .  A
C3057      C3061   1.443   1_545  S
C3058      C3059   1.426       .  A
C3059      C3060   1.394       .  A
C3059      H3072   1.077       .  S
C3060      C3062   1.447       .  S
C3061      N3065   1.157       .  T
C3062      N3066   1.157       .  T
C3063      N3068   1.157       .  T
C3064      N3067   1.157       .  T
C3073      C3074   1.410       .  A
C3073      C3078   1.403   1_455  A
C3073      C3087   1.445       .  S
C3074      C3079   1.511       .  S
C3074      C3075   1.405   1_455  A
C3075      C3076   1.413       .  A
C3075      H3094   1.084       .  S
C3076      C3077   1.431       .  A
C3076      C3088   1.442       .  S
C3077      C3078   1.421       .  A
C3078      H3093   1.084       .  S
C3079      C3080   1.401   1_455  A
C3079      C3084   1.412       .  A
C3080      C3081   1.409   1_655  A
C3080      H3095   1.085       .  S
C3081      C3082   1.433       .  A
C3081      C3085   1.443   1_455  S
C3082      C3083   1.420       .  A
C3083      C3084   1.407       .  A
C3083      H3096   1.079       .  S
C3084      C3086   1.444       .  S
C3085      N3089   1.157       .  T
C3086      N3090   1.157       .  T
C3087      N3092   1.157       .  T
C3088      N3091   1.158       .  T
C3097      C3098   1.406       .  A
C3097      C3102   1.401       .  A
C3097      C3111   1.445       .  S
C3098      C3103   1.489       .  S
C3098      C3099   1.398       .  A
C3099      C3100   1.405       .  A
C3099      H3118   1.085       .  S
C3100      C3101   1.431       .  A
C3100      C3112   1.442       .  S
C3101      C3102   1.420       .  A
C3102      H3117   1.080       .  S
C3103      C3104   1.397       .  A
C3103      C3108   1.402       .  A
C3104      C3105   1.403       .  A
C3104      H3119   1.086       .  S
C3105      C3106   1.436       .  A
C3105      C3109   1.443       .  S
C3106      C3107   1.423       .  A
C3107      C3108   1.401       .  A
C3107      H3120   1.084   1_655  S
C3108      C3110   1.443       .  S
C3109      N3113   1.158       .  T
C3110      N3114   1.157       .  T
C3111      N3116   1.157       .  T
C3112      N3115   1.157       .  T
C3121      C3122   1.410       .  A
C3121      C3126   1.407       .  A
C3121      C3135   1.444       .  S
C3122      C3127   1.496       .  S
C3122      C3123   1.403       .  A
C3123      C3124   1.408       .  A
C3123      H3142   1.085       .  S
C3124      C3125   1.419       .  A
C3124      C3136   1.443       .  S
C3125      C3126   1.410       .  A
C3126      H3141   1.084       .  S
C3127      C3128   1.395       .  A
C3127      C3132   1.408       .  A
C3128      C3129   1.403       .  A
C3128      H3143   1.085       .  S
C3129      C3130   1.436       .  A
C3129      C3133   1.445       .  S
C3130      C3131   1.419       .  A
C3131      C3132   1.409       .  A
C3131      H3144   1.080       .  S
C3132      C3134   1.443       .  S
C3133      N3137   1.157       .  T
C3134      N3138   1.157       .  T
C3135      N3140   1.157   1_455  T
C3136      N3139   1.157       .  T
C3145      C3146   1.414       .  A
C3145      C3150   1.397       .  A
C3145      C3159   1.446       .  S
C3146      C3151   1.523       .  S
C3146      C3147   1.411   1_545  A
C3147      C3148   1.416       .  A
C3147      H3166   1.082       .  S
C3148      C3149   1.432   1_565  A
C3148      C3160   1.441       .  S
C3149      C3150   1.417       .  A
C3150      H3165   1.082       .  S
C3151      C3152   1.404       .  A
C3151      C3156   1.415       .  A
C3152      C3153   1.404       .  A
C3152      H3167   1.084   1_545  S
C3153      C3154   1.431       .  A
C3153      C3157   1.441       .  S
C3154      C3155   1.422       .  A
C3155      C3156   1.410       .  A
C3155      H3168   1.078       .  S
C3156      C3158   1.443       .  S
C3157      N3161   1.157       .  T
C3158      N3162   1.157       .  T
C3159      N3164   1.157       .  T
C3160      N3163   1.158       .  T
C3169      C3170   1.408       .  A
C3169      C3174   1.408       .  A
C3169      C3183   1.443       .  S
C3170      C3175   1.501       .  S
C3170      C3171   1.399       .  A
C3171      C3172   1.400       .  A
C3171      H3190   1.086       .  S
C3172      C3173   1.432       .  A
C3172      C3184   1.443       .  S
C3173      C3174   1.424       .  A
C3174      H3189   1.080       .  S
C3175      C3176   1.401       .  A
C3175      C3180   1.408       .  A
C3176      C3177   1.408       .  A
C3176      H3191   1.084       .  S
C3177      C3178   1.433       .  A
C3177      C3181   1.444       .  S
C3178      C3179   1.423       .  A
C3179      C3180   1.400       .  A
C3179      H3192   1.073       .  S
C3180      C3182   1.447       .  S
C3181      N3185   1.157       .  T
C3182      N3186   1.157       .  T
C3183      N3188   1.157       .  T
C3184      N3187   1.158   1_545  T
C3193      C3194   1.399       .  A
C3193      C3198   1.391       .  A
C3193      C3207   1.447       .  S
C3194      C3199   1.493       .  S
C3194      C3195   1.405   1_565  A
C3195      C3196   1.417       .  A
C3195      H3214   1.084       .  S
C3196      C3197   1.430       .  A
C3196      C3208   1.443       .  S
C3197      C3198   1.421   1_545  A
C3198      H3213   1.074       .  S
C3199      C3200   1.404   1_565  A
C3199      C3204   1.412       .  A
C3200      C3201   1.408   1_545  A
C3200      H3215   1.084       .  S
C3201      C3202   1.415       .  A
C3201      C3205   1.444   1_565  S
C3202      C3203   1.404       .  A
C3203      C3204   1.402       .  A
C3203      H3216   1.085       .  S
C3204      C3206   1.444       .  S
C3205      N3209   1.157       .  T
C3206      N3210   1.157       .  T
C3207      N3212   1.157       .  T
C3208      N3211   1.157       .  T
C3217      C3218   1.415       .  A
C3217      C3222   1.411       .  A
C3217      C3231   1.443       .  S
C3218      C3223   1.509       .  S
C3218      C3219   1.399       .  A
C3219      C3220   1.396       .  A
C3219      H3238   1.086       .  S
C3220      C3221   1.429       .  A
C3220      C3232   1.435       .  S
C3221      C3222   1.421       .  A
C3222      H3237   1.084       .  S
C3223      C3224   1.404       .  A
C3223      C3228   1.417       .  A
C3224      C3225   1.405       .  A
C3224      H3239   1.081       .  S
C3225      C3226   1.429       .  A
C3225      C3229   1.442       .  S
C3226      C3227   1.413       .  A
C3227      C3228   1.400       .  A
C3227      H3240   1.082   1_565  S
C3228      C3230   1.445       .  S
C3229      N3233   1.157       .  T
C3230      N3234   1.157       .  T
C3231      N3236   1.157       .  T
C3232      N3235   1.154   1_455  T
C3241      C3242   1.401       .  A
C3241      C3246   1.402       .  A
C3241      C3255   1.444       .  S
C3242      C3247   1.496       .  S
C3242      C3243   1.403       .  A
C3243      C3244   1.414       .  A
C3243      H3262   1.085       .  S
C3244      C3245   1.428       .  A
C3244      C3256   1.440       .  S
C3245      C3246   1.425       .  A
C3246      H3261   1.082       .  S
C3247      C3248   1.400       .  A
C3247      C3252   1.407       .  A
C3248      C3249   1.411       .  A
C3248      H3263   1.085       .  S
C3249      C3250   1.434   1_565  A
C3249      C3253   1.440       .  S
C3250      C3251   1.419       .  A
C3251      C3252   1.397   1_545  A
C3251      H3264   1.083       .  S
C3252      C3254   1.442       .  S
C3253      N3257   1.157       .  T
C3254      N3258   1.157       .  T
C3255      N3260   1.157       .  T
C3256      N3259   1.157   1_655  T
C3265      C3266   1.411       .  A
C3265      C3270   1.408       .  A
C3265      C3279   1.444       .  S
C3266      C3271   1.497       .  S
C3266      C3267   1.402       .  A
C3267      C3268   1.408       .  A
C3267      H3286   1.085   1_655  S
C3268      C3269   1.420       .  A
C3268      C3280   1.443   1_655  S
C3269      C3270   1.409       .  A
C3270      H3285   1.084       .  S
C3271      C3272   1.406       .  A
C3271      C3276   1.401       .  A
C3272      C3273   1.417   1_655  A
C3272      H3287   1.084       .  S
C3273      C3274   1.429       .  A
C3273      C3277   1.442       .  S
C3274      C3275   1.421   1_455  A
C3275      C3276   1.397       .  A
C3275      H3288   1.077       .  S
C3276      C3278   1.444       .  S
C3277      N3281   1.158       .  T
C3278      N3282   1.157       .  T
C3279      N3284   1.157       .  T
C3280      N3283   1.157       .  T
C3289      C3290   1.421       .  A
C3289      C3294   1.403       .  A
C3289      C3303   1.446       .  S
C3290      C3295   1.531       .  S
C3290      C3291   1.410   1_455  A
C3291      C3292   1.415       .  A
C3291      H3310   1.082       .  S
C3292      C3293   1.433   1_655  A
C3292      C3304   1.443       .  S
C3293      C3294   1.412       .  A
C3294      H3309   1.074       .  S
C3295      C3296   1.403       .  A
C3295      C3300   1.423   1_455  A
C3296      C3297   1.400       .  A
C3296      H3311   1.082       .  S
C3297      C3298   1.433       .  A
C3297      C3301   1.444       .  S
C3298      C3299   1.420   1_455  A
C3299      C3300   1.419       .  A
C3299      H3312   1.083       .  S
C3300      C3302   1.442       .  S
C3301      N3305   1.158       .  T
C3302      N3306   1.157       .  T
C3303      N3308   1.157       .  T
C3304      N3307   1.157       .  T
C3313      C3314   1.413       .  A
C3313      C3318   1.409       .  A
C3313      C3327   1.444   1_455  S
C3314      C3319   1.512       .  S
C3314      C3315   1.405       .  A
C3315      C3316   1.410       .  A
C3315      H3334   1.085       .  S
C3316      C3317   1.432       .  A
C3316      C3328   1.444       .  S
C3317      C3318   1.417       .  A
C3318      H3333   1.080   1_455  S
C3319      C3320   1.405       .  A
C3319      C3324   1.416       .  A
C3320      C3321   1.410       .  A
C3320      H3335   1.084       .  S
C3321      C3322   1.422       .  A
C3321      C3325   1.443       .  S
C3322      C3323   1.408       .  A
C3323      C3324   1.409       .  A
C3323      H3336   1.084       .  S
C3324      C3326   1.442       .  S
C3325      N3329   1.157   1_455  T
C3326      N3330   1.156       .  T
C3327      N3332   1.157       .  T
C3328      N3331   1.157       .  T
C3337      C3338   1.408       .  A
C3337      C3342   1.401       .  A
C3337      C3351   1.446       .  S
C3338      C3343   1.509       .  S
C3338      C3339   1.407   1_556  A
C3339      C3340   1.416       .  A
C3339      H3358   1.084       .  S
C3340      C3341   1.429   1_554  A
C3340      C3352   1.443       .  S
C3341      C3342   1.423       .  A
C3342      H3357   1.078       .  S
C3343      C3344   1.401       .  A
C3343      C3348   1.411       .  A
C3344      C3345   1.404       .  A
C3344      H3359   1.085       .  S
C3345      C3346   1.432       .  A
C3345      C3349   1.444       .  S
C3346      C3347   1.422       .  A
C3347      C3348   1.411       .  A
C3347      H3360   1.080       .  S
C3348      C3350   1.443       .  S
C3349      N3353   1.158       .  T
C3350      N3354   1.157       .  T
C3351      N3356   1.157       .  T
C3352      N3355   1.157       .  T
C3361      C3362   1.405       .  A
C3361      C3366   1.397       .  A
C3361      C3375   1.446       .  S
C3362      C3367   1.491       .  S
C3362      C3363   1.400       .  A
C3363      C3364   1.401       .  A
C3363      H3382   1.085       .  S
C3364      C3365   1.430       .  A
C3364      C3376   1.444       .  S
C3365      C3366   1.422       .  A
C3366      H3381   1.078       .  S
C3367      C3368   1.398       .  A
C3367      C3372   1.401       .  A
C3368      C3369   1.404       .  A
C3368      H3383   1.085       .  S
C3369      C3370   1.439       .  A
C3369      C3373   1.446       .  S
C3370      C3371   1.427       .  A
C3371      C3372   1.396       .  A
C3371      H3384   1.074       .  S
C3372      C3374   1.447       .  S
C3373      N3377   1.157       .  T
C3374      N3378   1.157       .  T
C3375      N3380   1.157       .  T
C3376      N3379   1.157       .  T
C3385      C3386   1.399       .  A
C3385      C3390   1.395       .  A
C3385      C3399   1.445       .  S
C3386      C3391   1.493       .  S
C3386      C3387   1.404       .  A
C3387      C3388   1.415   1_554  A
C3387      H3406   1.085       .  S
C3388      C3389   1.431   1_556  A
C3388      C3400   1.440       .  S
C3389      C3390   1.425       .  A
C3390      H3405   1.081       .  S
C3391      C3392   1.400       .  A
C3391      C3396   1.411       .  A
C3392      C3393   1.407       .  A
C3392      H3407   1.085   1_554  S
C3393      C3394   1.422       .  A
C3393      C3397   1.444   1_554  S
C3394      C3395   1.408       .  A
C3395      C3396   1.406       .  A
C3395      H3408   1.084       .  S
C3396      C3398   1.443       .  S
C3397      N3401   1.157       .  T
C3398      N3402   1.157       .  T
C3399      N3404   1.157       .  T
C3400      N3403   1.158       .  T
C3409      C3410   1.409       .  A
C3409      C3414   1.405       .  A
C3409      C3423   1.444       .  S
C3410      C3415   1.516       .  S
C3410      C3411   1.408       .  A
C3411      C3412   1.419       .  A
C3411      H3430   1.085       .  S
C3412      C3413   1.432       .  A
C3412      C3424   1.440   1_455  S
C3413      C3414   1.424       .  A
C3414      H3429   1.084       .  S
C3415      C3416   1.403   1_455  A
C3415      C3420   1.414       .  A
C3416      C3417   1.412   1_655  A
C3416      H3431   1.085       .  S
C3417      C3418   1.434       .  A
C3417      C3421   1.445   1_455  S
C3418      C3419   1.419       .  A
C3419      C3420   1.410       .  A
C3419      H3432   1.080       .  S
C3420      C3422   1.444       .  S
C3421      N3425   1.157       .  T
C3422      N3426   1.157       .  T
C3423      N3428   1.157       .  T
C3424      N3427   1.158       .  T
C3433      C3434   1.405       .  A
C3433      C3438   1.402       .  A
C3433      C3447   1.445       .  S
C3434      C3439   1.491       .  S
C3434      C3435   1.395       .  A
C3435      C3436   1.407       .  A
C3435      H3454   1.086       .  S
C3436      C3437   1.439       .  A
C3436      C3448   1.442       .  S
C3437      C3438   1.420       .  A
C3438      H3453   1.083       .  S
C3439      C3440   1.402       .  A
C3439      C3444   1.402       .  A
C3440      C3441   1.410       .  A
C3440      H3455   1.084       .  S
C3441      C3442   1.430       .  A
C3441      C3445   1.443       .  S
C3442      C3443   1.422       .  A
C3443      C3444   1.399       .  A
C3443      H3456   1.081       .  S
C3444      C3446   1.444       .  S
C3445      N3449   1.157   1_554  T
C3446      N3450   1.157       .  T
C3447      N3452   1.157       .  T
C3448      N3451   1.157       .  T
C3457      C3458   1.401       .  A
C3457      C3462   1.396       .  A
C3457      C3471   1.447       .  S
C3458      C3463   1.505       .  S
C3458      C3459   1.407   1_655  A
C3459      C3460   1.421       .  A
C3459      H3478   1.084       .  S
C3460      C3461   1.430   1_455  A
C3460      C3472   1.441       .  S
C3461      C3462   1.429       .  A
C3462      H3477   1.077       .  S
C3463      C3464   1.406       .  A
C3463      C3468   1.415       .  A
C3464      C3465   1.412       .  A
C3464      H3479   1.084   1_655  S
C3465      C3466   1.418       .  A
C3465      C3469   1.443   1_655  S
C3466      C3467   1.406       .  A
C3467      C3468   1.405       .  A
C3467      H3480   1.085       .  S
C3468      C3470   1.444       .  S
C3469      N3473   1.157       .  T
C3470      N3474   1.157       .  T
C3471      N3476   1.157       .  T
C3472      N3475   1.157       .  T
C3481      C3482   1.405       .  A
C3481      C3486   1.404       .  A
C3481      C3495   1.444       .  S
C3482      C3487   1.496       .  S
C3482      C3483   1.400       .  A
C3483      C3484   1.404       .  A
C3483      H3502   1.085       .  S
C3484      C3485   1.433       .  A
C3484      C3496   1.444   1_554  S
C3485      C3486   1.422       .  A
C3486      H3501   1.079       .  S
C3487      C3488   1.400       .  A
C3487      C3492   1.409       .  A
C3488      C3489   1.406       .  A
C3488      H3503   1.085       .  S
C3489      C3490   1.431       .  A
C3489      C3493   1.442       .  S
C3490      C3491   1.415       .  A
C3491      C3492   1.402       .  A
C3491      H3504   1.081   1_655  S
C3492      C3494   1.443       .  S
C3493      N3497   1.157       .  T
C3494      N3498   1.157       .  T
C3495      N3500   1.157       .  T
C3496      N3499   1.158       .  T
C3505      C3506   1.407       .  A
C3505      C3510   1.404       .  A
C3505      C3519   1.444       .  S
C3506      C3511   1.496       .  S
C3506      C3507   1.398       .  A
C3507      C3508   1.405       .  A
C3507      H3526   1.085       .  S
C3508      C3509   1.431       .  A
C3508      C3520   1.440       .  S
C3509      C3510   1.421       .  A
C3510      H3525   1.081       .  S
C3511      C3512   1.399       .  A
C3511      C3516   1.405       .  A
C3512      C3513   1.403       .  A
C3512      H3527   1.085       .  S
C3513      C3514   1.435       .  A
C3513      C3517   1.446   1_655  S
C3514      C3515   1.425       .  A
C3515      C3516   1.405       .  A
C3515      H3528   1.077       .  S
C3516      C3518   1.444       .  S
C3517      N3521   1.158       .  T
C3518      N3522   1.157       .  T
C3519      N3524   1.157       .  T
C3520      N3523   1.157       .  T
C3529      C3530   1.404       .  A
C3529      C3534   1.396       .  A
C3529      C3543   1.447       .  S
C3530      C3535   1.502       .  S
C3530      C3531   1.406       .  A
C3531      C3532   1.417       .  A
C3531      H3550   1.084   1_556  S
C3532      C3533   1.432       .  A
C3532      C3544   1.444   1_556  S
C3533      C3534   1.422       .  A
C3534      H3549   1.075       .  S
C3535      C3536   1.406       .  A
C3535      C3540   1.413       .  A
C3536      C3537   1.412       .  A
C3536      H3551   1.084   1_556  S
C3537      C3538   1.418       .  A
C3537      C3541   1.443       .  S
C3538      C3539   1.405       .  A
C3539      C3540   1.404       .  A
C3539      H3552   1.085       .  S
C3540      C3542   1.444       .  S
C3541      N3545   1.157   1_556  T
C3542      N3546   1.157       .  T
C3543      N3548   1.157       .  T
C3544      N3547   1.157       .  T
C3553      C3554   1.420   1_554  A
C3553      C3558   1.413       .  A
C3553      C3567   1.443       .  S
C3554      C3559   1.530       .  S
C3554      C3555   1.407       .  A
C3555      C3556   1.406       .  A
C3555      H3574   1.083       .  S
C3556      C3557   1.431   1_556  A
C3556      C3568   1.445       .  S
C3557      C3558   1.418       .  A
C3558      H3573   1.078       .  S
C3559      C3560   1.411       .  A
C3559      C3564   1.418       .  A
C3560      C3561   1.416       .  A
C3560      H3575   1.083       .  S
C3561      C3562   1.433       .  A
C3561      C3565   1.442       .  S
C3562      C3563   1.417       .  A
C3563      C3564   1.404       .  A
C3563      H3576   1.085       .  S
C3564      C3566   1.445   1_556  S
C3565      N3569   1.158       .  T
C3566      N3570   1.157       .  T
C3567      N3572   1.157       .  T
C3568      N3571   1.157       .  T
C3577      C3578   1.412       .  A
C3577      C3582   1.407       .  A
C3577      C3591   1.444       .  S
C3578      C3583   1.495       .  S
C3578      C3579   1.401       .  A
C3579      C3580   1.403       .  A
C3579      H3598   1.085   1_554  S
C3580      C3581   1.422       .  A
C3580      C3592   1.444       .  S
C3581      C3582   1.408       .  A
C3582      H3597   1.084       .  S
C3583      C3584   1.399       .  A
C3583      C3588   1.403       .  A
C3584      C3585   1.407       .  A
C3584      H3599   1.085       .  S
C3585      C3586   1.435       .  A
C3585      C3589   1.444       .  S
C3586      C3587   1.426   1_554  A
C3587      C3588   1.401   1_556  A
C3587      H3600   1.077       .  S
C3588      C3590   1.445   1_554  S
C3589      N3593   1.157       .  T
C3590      N3594   1.157       .  T
C3591      N3596   1.157       .  T
C3592      N3595   1.157   1_554  T
C3601      C3602   1.407       .  A
C3601      C3606   1.403       .  A
C3601      C3615   1.444       .  S
C3602      C3607   1.500       .  S
C3602      C3603   1.398   1_545  A
C3603      C3604   1.408   1_565  A
C3603      H3622   1.085       .  S
C3604      C3605   1.434       .  A
C3604      C3616   1.442   1_545  S
C3605      C3606   1.421       .  A
C3606      H3621   1.077       .  S
C3607      C3608   1.397       .  A
C3607      C3612   1.410   1_545  A
C3608      C3609   1.405       .  A
C3608      H3623   1.085       .  S
C3609      C3610   1.435       .  A
C3609      C3613   1.444       .  S
C3610      C3611   1.418   1_545  A
C3611      C3612   1.409       .  A
C3611      H3624   1.079       .  S
C3612      C3614   1.443       .  S
C3613      N3617   1.157       .  T
C3614      N3618   1.157       .  T
C3615      N3620   1.157       .  T
C3616      N3619   1.157       .  T
C3625      C3626   1.406       .  A
C3625      C3630   1.405       .  A
C3625      C3639   1.443       .  S
C3626      C3631   1.499       .  S
C3626      C3627   1.401       .  A
C3627      C3628   1.404       .  A
C3627      H3646   1.086       .  S
C3628      C3629   1.434       .  A
C3628      C3640   1.444       .  S
C3629      C3630   1.422       .  A
C3630      H3645   1.084       .  S
C3631      C3632   1.404       .  A
C3631      C3636   1.405       .  A
C3632      C3633   1.414       .  A
C3632      H3647   1.085       .  S
C3633      C3634   1.434       .  A
C3633      C3637   1.442       .  S
C3634      C3635   1.421       .  A
C3635      C3636   1.393       .  A
C3635      H3648   1.084       .  S
C3636      C3638   1.446       .  S
C3637      N3641   1.158       .  T
C3638      N3642   1.157       .  T
C3639      N3644   1.157       .  T
C3640      N3643   1.158       .  T
C3649      C3650   1.402       .  A
C3649      C3654   1.400       .  A
C3649      C3663   1.444       .  S
C3650      C3655   1.496       .  S
C3650      C3651   1.401       .  A
C3651      C3652   1.413       .  A
C3651      H3670   1.085       .  S
C3652      C3653   1.435       .  A
C3652      C3664   1.441       .  S
C3653      C3654   1.425       .  A
C3654      H3669   1.084       .  S
C3655      C3656   1.401       .  A
C3655      C3660   1.411       .  A
C3656      C3657   1.405       .  A
C3656      H3671   1.085       .  S
C3657      C3658   1.421       .  A
C3657      C3661   1.443       .  S
C3658      C3659   1.411       .  A
C3659      C3660   1.409       .  A
C3659      H3672   1.084       .  S
C3660      C3662   1.443       .  S
C3661      N3665   1.157       .  T
C3662      N3666   1.157       .  T
C3663      N3668   1.157       .  T
C3664      N3667   1.158       .  T
C3673      C3674   1.410       .  A
C3673      C3678   1.408   1_554  A
C3673      C3687   1.444       .  S
C3674      C3679   1.513       .  S
C3674      C3675   1.405   1_554  A
C3675      C3676   1.413       .  A
C3675      H3694   1.085       .  S
C3676      C3677   1.434       .  A
C3676      C3688   1.442       .  S
C3677      C3678   1.424       .  A
C3678      H3693   1.084   1_556  S
C3679      C3680   1.399   1_554  A
C3679      C3684   1.414       .  A
C3680      C3681   1.406       .  A
C3680      H3695   1.085       .  S
C3681      C3682   1.434   1_556  A
C3681      C3685   1.442       .  S
C3682      C3683   1.422       .  A
C3683      C3684   1.415       .  A
C3683      H3696   1.080       .  S
C3684      C3686   1.444       .  S
C3685      N3689   1.157       .  T
C3686      N3690   1.157       .  T
C3687      N3692   1.157       .  T
C3688      N3691   1.158       .  T
C3697      C3698   1.407       .  A
C3697      C3702   1.406       .  A
C3697      C3711   1.443       .  S
C3698      C3703   1.494       .  S
C3698      C3699   1.396       .  A
C3699      C3700   1.397       .  A
C3699      H3718   1.086       .  S
C3700      C3701   1.435       .  A
C3700      C3712   1.442       .  S
C3701      C3702   1.422       .  A
C3702      H3717   1.079       .  S
C3703      C3704   1.398       .  A
C3703      C3708   1.406       .  A
C3704      C3705   1.405       .  A
C3704      H3719   1.085       .  S
C3705      C3706   1.435       .  A
C3705      C3709   1.443       .  S
C3706      C3707   1.424       .  A
C3707      C3708   1.397       .  A
C3707      H3720   1.075       .  S
C3708      C3710   1.447       .  S
C3709      N3713   1.157       .  T
C3710      N3714   1.157       .  T
C3711      N3716   1.157       .  T
C3712      N3715   1.157   1_554  T
C3721      C3722   1.419       .  A
C3721      C3726   1.407       .  A
C3721      C3735   1.444       .  S
C3722      C3727   1.507       .  S
C3722      C3723   1.404       .  A
C3723      C3724   1.409       .  A
C3723      H3742   1.084       .  S
C3724      C3725   1.420       .  A
C3724      C3736   1.444       .  S
C3725      C3726   1.403       .  A
C3726      H3741   1.084       .  S
C3727      C3728   1.394       .  A
C3727      C3732   1.409   1_556  A
C3728      C3729   1.403       .  A
C3728      H3743   1.087       .  S
C3729      C3730   1.442       .  A
C3729      C3733   1.440       .  S
C3730      C3731   1.425   1_556  A
C3731      C3732   1.412       .  A
C3731      H3744   1.084       .  S
C3732      C3734   1.443       .  S
C3733      N3737   1.158       .  T
C3734      N3738   1.157       .  T
C3735      N3740   1.157       .  T
C3736      N3739   1.157       .  T
C3745      C3746   1.410       .  A
C3745      C3750   1.405       .  A
C3745      C3759   1.444       .  S
C3746      C3751   1.507       .  S
C3746      C3747   1.403       .  A
C3747      C3748   1.411       .  A
C3747      H3766   1.085       .  S
C3748      C3749   1.434       .  A
C3748      C3760   1.442       .  S
C3749      C3750   1.421       .  A
C3750      H3765   1.084       .  S
C3751      C3752   1.403       .  A
C3751      C3756   1.413   1_545  A
C3752      C3753   1.408       .  A
C3752      H3767   1.085       .  S
C3753      C3754   1.430       .  A
C3753      C3757   1.445       .  S
C3754      C3755   1.415   1_545  A
C3755      C3756   1.404       .  A
C3755      H3768   1.080       .  S
C3756      C3758   1.444       .  S
C3757      N3761   1.157       .  T
C3758      N3762   1.157       .  T
C3759      N3764   1.157       .  T
C3760      N3763   1.158       .  T
C3769      C3770   1.402       .  A
C3769      C3774   1.395       .  A
C3769      C3783   1.443       .  S
C3770      C3775   1.495       .  S
C3770      C3771   1.404       .  A
C3771      C3772   1.413       .  A
C3771      H3790   1.084       .  S
C3772      C3773   1.429       .  A
C3772      C3784   1.442       .  S
C3773      C3774   1.421       .  A
C3774      H3789   1.080       .  S
C3775      C3776   1.400       .  A
C3775      C3780   1.402       .  A
C3776      C3777   1.401       .  A
C3776      H3791   1.086       .  S
C3777      C3778   1.433       .  A
C3777      C3781   1.445       .  S
C3778      C3779   1.427       .  A
C3779      C3780   1.405       .  A
C3779      H3792   1.077       .  S
C3780      C3782   1.444       .  S
C3781      N3785   1.158       .  T
C3782      N3786   1.157       .  T
C3783      N3788   1.156       .  T
C3784      N3787   1.157       .  T
C3793      C3794   1.403       .  A
C3793      C3798   1.401       .  A
C3793      C3807   1.446       .  S
C3794      C3799   1.497       .  S
C3794      C3795   1.402       .  A
C3795      C3796   1.405       .  A
C3795      H3814   1.085       .  S
C3796      C3797   1.431       .  A
C3796      C3808   1.445   1_565  S
C3797      C3798   1.426       .  A
C3798      H3813   1.076       .  S
C3799      C3800   1.403       .  A
C3799      C3804   1.405       .  A
C3800      C3801   1.409       .  A
C3800      H3815   1.084       .  S
C3801      C3802   1.431       .  A
C3801      C3805   1.445       .  S
C3802      C3803   1.420       .  A
C3803      C3804   1.396       .  A
C3803      H3816   1.078   1_556  S
C3804      C3806   1.444       .  S
C3805      N3809   1.157       .  T
C3806      N3810   1.156       .  T
C3807      N3812   1.157       .  T
C3808      N3811   1.157       .  T
C3817      C3818   1.411       .  A
C3817      C3822   1.406       .  A
C3817      C3831   1.444       .  S
C3818      C3823   1.504   1_545  S
C3818      C3819   1.401   1_545  A
C3819      C3820   1.405       .  A
C3819      H3838   1.085       .  S
C3820      C3821   1.431   1_565  A
C3820      C3832   1.444       .  S
C3821      C3822   1.418       .  A
C3822      H3837   1.079       .  S
C3823      C3824   1.404   1_565  A
C3823      C3828   1.416       .  A
C3824      C3825   1.406       .  A
C3824      H3839   1.085       .  S
C3825      C3826   1.421   1_545  A
C3825      C3829   1.444       .  S
C3826      C3827   1.406       .  A
C3827      C3828   1.406       .  A
C3827      H3840   1.084       .  S
C3828      C3830   1.444       .  S
C3829      N3833   1.157       .  T
C3830      N3834   1.157       .  T
C3831      N3836   1.157       .  T
C3832      N3835   1.157       .  T
C3841      C3842   1.407       .  A
C3841      C3846   1.405       .  A
C3841      C3855   1.445       .  S
C3842      C3847   1.507       .  S
C3842      C3843   1.401       .  A
C3843      C3844   1.411       .  A
C3843      H3862   1.085       .  S
C3844      C3845   1.436       .  A
C3844      C3856   1.445       .  S
C3845      C3846   1.426       .  A
C3846      H3861   1.076       .  S
C3847      C3848   1.403       .  A
C3847      C3852   1.415       .  A
C3848      C3849   1.406       .  A
C3848      H3863   1.085       .  S
C3849      C3850   1.422       .  A
C3849      C3853   1.444       .  S
C3850      C3851   1.410       .  A
C3851      C3852   1.412       .  A
C3851      H3864   1.084       .  S
C3852      C3854   1.444       .  S
C3853      N3857   1.157       .  T
C3854      N3858   1.157       .  T
C3855      N3860   1.157       .  T
C3856      N3859   1.157       .  T
C3865      C3866   1.406       .  A
C3865      C3870   1.402       .  A
C3865      C3879   1.443       .  S
C3866      C3871   1.490       .  S
C3866      C3867   1.399       .  A
C3867      C3868   1.400       .  A
C3867      H3886   1.085       .  S
C3868      C3869   1.432       .  A
C3868      C3880   1.445       .  S
C3869      C3870   1.419       .  A
C3870      H3885   1.083       .  S
C3871      C3872   1.403       .  A
C3871      C3876   1.404       .  A
C3872      C3873   1.412       .  A
C3872      H3887   1.085       .  S
C3873      C3874   1.432       .  A
C3873      C3877   1.441       .  S
C3874      C3875   1.422       .  A
C3875      C3876   1.390       .  A
C3875      H3888   1.084       .  S
C3876      C3878   1.447       .  S
C3877      N3881   1.158       .  T
C3878      N3882   1.157       .  T
C3879      N3884   1.157       .  T
C3880      N3883   1.158       .  T
C3889      C3890   1.402       .  A
C3889      C3894   1.400       .  A
C3889      C3903   1.444       .  S
C3890      C3895   1.495       .  S
C3890      C3891   1.401       .  A
C3891      C3892   1.411       .  A
C3891      H3910   1.085       .  S
C3892      C3893   1.434       .  A
C3892      C3904   1.442       .  S
C3893      C3894   1.423       .  A
C3894      H3909   1.084       .  S
C3895      C3896   1.402       .  A
C3895      C3900   1.410       .  A
C3896      C3897   1.406       .  A
C3896      H3911   1.085       .  S
C3897      C3898   1.420       .  A
C3897      C3901   1.444       .  S
C3898      C3899   1.410       .  A
C3899      C3900   1.407       .  A
C3899      H3912   1.084       .  S
C3900      C3902   1.444       .  S
C3901      N3905   1.157       .  T
C3902      N3906   1.157       .  T
C3903      N3908   1.157       .  T
C3904      N3907   1.158       .  T
C3913      C3914   1.406       .  A
C3913      C3918   1.410       .  A
C3913      C3927   1.444       .  S
C3914      C3919   1.502       .  S
C3914      C3915   1.397       .  A
C3915      C3916   1.402       .  A
C3915      H3934   1.086       .  S
C3916      C3917   1.436       .  A
C3916      C3928   1.442       .  S
C3917      C3918   1.429       .  A
C3918      H3933   1.078       .  S
C3919      C3920   1.401       .  A
C3919      C3924   1.407       .  A
C3920      C3921   1.410       .  A
C3920      H3935   1.085       .  S
C3921      C3922   1.433       .  A
C3921      C3925   1.442       .  S
C3922      C3923   1.423       .  A
C3923      C3924   1.401       .  A
C3923      H3936   1.078       .  S
C3924      C3926   1.446       .  S
C3925      N3929   1.157       .  T
C3926      N3930   1.157       .  T
C3927      N3932   1.157       .  T
C3928      N3931   1.157       .  T
C3937      C3938   1.416       .  A
C3937      C3942   1.409       .  A
C3937      C3951   1.444       .  S
C3938      C3943   1.518       .  S
C3938      C3939   1.405       .  A
C3939      C3940   1.412       .  A
C3939      H3958   1.084       .  S
C3940      C3941   1.433       .  A
C3940      C3952   1.441       .  S
C3941      C3942   1.418       .  A
C3942      H3957   1.078       .  S
C3943      C3944   1.410       .  A
C3943      C3948   1.422       .  A
C3944      C3945   1.410       .  A
C3944      H3959   1.084       .  S
C3945      C3946   1.418       .  A
C3945      C3949   1.443       .  S
C3946      C3947   1.404       .  A
C3947      C3948   1.406       .  A
C3947      H3960   1.085       .  S
C3948      C3950   1.443       .  S
C3949      N3953   1.157       .  T
C3950      N3954   1.158       .  T
C3951      N3956   1.157       .  T
C3952      N3955   1.157       .  T
C3961      C3962   1.410       .  A
C3961      C3966   1.408       .  A
C3961      C3975   1.443       .  S
C3962      C3967   1.494       .  S
C3962      C3963   1.390       .  A
C3963      C3964   1.394       .  A
C3963      H3982   1.086       .  S
C3964      C3965   1.439       .  A
C3964      C3976   1.439       .  S
C3965      C3966   1.420       .  A
C3966      H3981   1.084       .  S
C3967      C3968   1.392       .  A
C3967      C3972   1.410       .  A
C3968      C3969   1.401       .  A
C3968      H3983   1.087       .  S
C3969      C3970   1.438       .  A
C3969      C3973   1.436       .  S
C3970      C3971   1.421       .  A
C3971      C3972   1.403       .  A
C3971      H3984   1.084       .  S
C3972      C3974   1.444       .  S
C3973      N3977   1.156       .  T
C3974      N3978   1.157       .  T
C3975      N3980   1.157       .  T
C3976      N3979   1.155       .  T
C3985      C3986   1.405       .  A
C3985      C3990   1.407       .  A
C3985      C3999   1.442       .  S
C3986      C3991   1.481       .  S
C3986      C3987   1.393       .  A
C3987      C3988   1.393       .  A
C3987      H4006   1.086       .  S
C3988      C3989   1.436       .  A
C3988      C4000   1.446       .  S
C3989      C3990   1.419       .  A
C3990      H4005   1.080       .  S
C3991      C3992   1.390       .  A
C3991      C3996   1.401       .  A
C3992      C3993   1.390       .  A
C3992      H4007   1.084       .  S
C3993      C3994   1.439       .  A
C3993      C3997   1.447       .  S
C3994      C3995   1.424       .  A
C3995      C3996   1.406       .  A
C3995      H4008   1.085       .  S
C3996      C3998   1.442       .  S
C3997      N4001   1.158       .  T
C3998      N4002   1.157       .  T
C3999      N4004   1.157       .  T
C4000      N4003   1.158       .  T
C4009      C4010   1.406       .  A
C4009      C4014   1.404       .  A
C4009      C4023   1.445       .  S
C4010      C4015   1.495       .  S
C4010      C4011   1.397       .  A
C4011      C4012   1.402       .  A
C4011      H4030   1.085       .  S
C4012      C4013   1.438       .  A
C4012      C4024   1.447       .  S
C4013      C4014   1.422       .  A
C4014      H4029   1.076       .  S
C4015      C4016   1.402       .  A
C4015      C4020   1.413       .  A
C4016      C4017   1.403       .  A
C4016      H4031   1.085       .  S
C4017      C4018   1.421       .  A
C4017      C4021   1.444       .  S
C4018      C4019   1.407       .  A
C4019      C4020   1.405       .  A
C4019      H4032   1.084       .  S
C4020      C4022   1.444       .  S
C4021      N4025   1.157       .  T
C4022      N4026   1.157       .  T
C4023      N4028   1.157       .  T
C4024      N4027   1.158       .  T
C4033      C4034   1.407       .  A
C4033      C4038   1.402       .  A
C4033      C4047   1.444       .  S
C4034      C4039   1.499       .  S
C4034      C4035   1.401       .  A
C4035      C4036   1.405       .  A
C4035      H4054   1.085       .  S
C4036      C4037   1.434       .  A
C4036      C4048   1.443       .  S
C4037      C4038   1.421       .  A
C4038      H4053   1.082       .  S
C4039      C4040   1.405       .  A
C4039      C4044   1.414       .  A
C4040      C4041   1.407       .  A
C4040      H4055   1.085       .  S
C4041      C4042   1.419       .  A
C4041      C4045   1.444       .  S
C4042      C4043   1.406       .  A
C4043      C4044   1.404       .  A
C4043      H4056   1.084       .  S
C4044      C4046   1.445       .  S
C4045      N4049   1.157       .  T
C4046      N4050   1.157       .  T
C4047      N4052   1.157       .  T
C4048      N4051   1.158       .  T
C4057      C4058   1.405       .  A
C4057      C4062   1.387       .  A
C4057      C4071   1.446       .  S
C4058      C4063   1.493       .  S
C4058      C4059   1.405       .  A
C4059      C4060   1.414       .  A
C4059      H4078   1.085       .  S
C4060      C4061   1.432       .  A
C4060      C4072   1.441       .  S
C4061      C4062   1.421       .  A
C4062      H4077   1.084       .  S
C4063      C4064   1.401       .  A
C4063      C4068   1.408       .  A
C4064      C4065   1.403       .  A
C4064      H4079   1.085       .  S
C4065      C4066   1.430       .  A
C4065      C4069   1.443       .  S
C4066      C4067   1.418       .  A
C4067      C4068   1.403       .  A
C4067      H4080   1.080       .  S
C4068      C4070   1.444       .  S
C4069      N4073   1.158       .  T
C4070      N4074   1.157       .  T
C4071      N4076   1.158       .  T
C4072      N4075   1.158       .  T
C4081      C4082   1.405       .  A
C4081      C4086   1.406       .  A
C4081      C4095   1.444       .  S
C4082      C4087   1.499       .  S
C4082      C4083   1.397       .  A
C4083      C4084   1.406       .  A
C4083      H4102   1.085       .  S
C4084      C4085   1.441       .  A
C4084      C4096   1.447       .  S
C4085      C4086   1.425       .  A
C4086      H4101   1.077       .  S
C4087      C4088   1.401       .  A
C4087      C4092   1.413       .  A
C4088      C4089   1.405       .  A
C4088      H4103   1.085       .  S
C4089      C4090   1.423       .  A
C4089      C4093   1.444       .  S
C4090      C4091   1.410       .  A
C4091      C4092   1.410       .  A
C4091      H4104   1.084       .  S
C4092      C4094   1.444       .  S
C4093      N4097   1.157       .  T
C4094      N4098   1.157       .  T
C4095      N4100   1.157       .  T
C4096      N4099   1.157       .  T
C4105      C4106   1.407       .  A
C4105      C4110   1.407       .  A
C4105      C4119   1.443       .  S
C4106      C4111   1.499       .  S
C4106      C4107   1.393       .  A
C4107      C4108   1.403       .  A
C4107      H4126   1.086       .  S
C4108      C4109   1.441       .  A
C4108      C4120   1.437       .  S
C4109      C4110   1.423       .  A
C4110      H4125   1.083       .  S
C4111      C4112   1.395       .  A
C4111      C4116   1.409       .  A
C4112      C4113   1.402       .  A
C4112      H4127   1.086       .  S
C4113      C4114   1.443       .  A
C4113      C4117   1.445       .  S
C4114      C4115   1.420       .  A
C4115      C4116   1.408       .  A
C4115      H4128   1.084       .  S
C4116      C4118   1.443       .  S
C4117      N4121   1.158       .  T
C4118      N4122   1.157       .  T
C4119      N4124   1.157       .  T
C4120      N4123   1.156       .  T
C4129      C4130   1.411       .  A
C4129      C4134   1.407       .  A
C4129      C4143   1.443       .  S
C4130      C4135   1.503       .  S
C4130      C4131   1.403       .  A
C4131      C4132   1.408       .  A
C4131      H4150   1.085       .  S
C4132      C4133   1.429       .  A
C4132      C4144   1.444       .  S
C4133      C4134   1.417       .  A
C4134      H4149   1.083       .  S
C4135      C4136   1.407       .  A
C4135      C4140   1.411       .  A
C4136      C4137   1.405       .  A
C4136      H4151   1.082       .  S
C4137      C4138   1.415       .  A
C4137      C4141   1.444       .  S
C4138      C4139   1.411       .  A
C4139      C4140   1.407       .  A
C4139      H4152   1.084       .  S
C4140      C4142   1.443       .  S
C4141      N4145   1.157       .  T
C4142      N4146   1.157       .  T
C4143      N4148   1.157       .  T
C4144      N4147   1.158       .  T
C4153      C4154   1.416       .  A
C4153      C4158   1.412       .  A
C4153      C4167   1.443       .  S
C4154      C4159   1.520       .  S
C4154      C4155   1.400       .  A
C4155      C4156   1.403       .  A
C4155      H4174   1.084       .  S
C4156      C4157   1.437       .  A
C4156      C4168   1.443       .  S
C4157      C4158   1.420       .  A
C4158      H4173   1.078       .  S
C4159      C4160   1.408       .  A
C4159      C4164   1.416       .  A
C4160      C4161   1.414       .  A
C4160      H4175   1.084       .  S
C4161      C4162   1.431       .  A
C4161      C4165   1.441       .  S
C4162      C4163   1.418       .  A
C4163      C4164   1.403       .  A
C4163      H4176   1.085       .  S
C4164      C4166   1.445       .  S
C4165      N4169   1.158       .  T
C4166      N4170   1.157       .  T
C4167      N4172   1.157       .  T
C4168      N4171   1.157       .  T
C4177      C4178   1.415       .  A
C4177      C4182   1.402       .  A
C4177      C4191   1.445       .  S
C4178      C4183   1.505       .  S
C4178      C4179   1.400       .  A
C4179      C4180   1.406       .  A
C4179      H4198   1.084       .  S
C4180      C4181   1.436       .  A
C4180      C4192   1.444       .  S
C4181      C4182   1.417       .  A
C4182      H4197   1.084       .  S
C4183      C4184   1.394       .  A
C4183      C4188   1.411       .  A
C4184      C4185   1.398       .  A
C4184      H4199   1.086       .  S
C4185      C4186   1.438       .  A
C4185      C4189   1.437       .  S
C4186      C4187   1.422       .  A
C4187      C4188   1.410       .  A
C4187      H4200   1.081       .  S
C4188      C4190   1.443       .  S
C4189      N4193   1.155       .  T
C4190      N4194   1.157       .  T
C4191      N4196   1.157       .  T
C4192      N4195   1.158       .  T
C4201      C4202   1.407       .  A
C4201      C4206   1.405       .  A
C4201      C4215   1.444       .  S
C4202      C4207   1.497       .  S
C4202      C4203   1.398       .  A
C4203      C4204   1.406       .  A
C4203      H4222   1.085       .  S
C4204      C4205   1.434       .  A
C4204      C4216   1.441       .  S
C4205      C4206   1.420       .  A
C4206      H4221   1.080       .  S
C4207      C4208   1.397       .  A
C4207      C4212   1.404       .  A
C4208      C4209   1.404       .  A
C4208      H4223   1.086       .  S
C4209      C4210   1.433       .  A
C4209      C4213   1.441       .  S
C4210      C4211   1.425       .  A
C4211      C4212   1.406       .  A
C4211      H4224   1.080       .  S
C4212      C4214   1.444       .  S
C4213      N4217   1.157       .  T
C4214      N4218   1.157       .  T
C4215      N4220   1.157       .  T
C4216      N4219   1.157       .  T
C4225      C4226   1.401       .  A
C4225      C4230   1.398       .  A
C4225      C4239   1.446       .  S
C4226      C4231   1.494       .  S
C4226      C4227   1.400       .  A
C4227      C4228   1.412       .  A
C4227      H4246   1.085       .  S
C4228      C4229   1.432       .  A
C4228      C4240   1.441       .  S
C4229      C4230   1.427       .  A
C4230      H4245   1.077       .  S
C4231      C4232   1.403       .  A
C4231      C4236   1.412       .  A
C4232      C4233   1.406       .  A
C4232      H4247   1.085       .  S
C4233      C4234   1.416       .  A
C4233      C4237   1.443       .  S
C4234      C4235   1.408       .  A
C4235      C4236   1.405       .  A
C4235      H4248   1.085       .  S
C4236      C4238   1.444       .  S
C4237      N4241   1.157       .  T
C4238      N4242   1.157       .  T
C4239      N4244   1.157       .  T
C4240      N4243   1.157       .  T
C4249      C4250   1.415       .  A
C4249      C4254   1.403       .  A
C4249      C4263   1.445       .  S
C4250      C4255   1.519       .  S
C4250      C4251   1.405       .  A
C4251      C4252   1.407       .  A
C4251      H4270   1.083       .  S
C4252      C4253   1.432       .  A
C4252      C4264   1.442       .  S
C4253      C4254   1.419       .  A
C4254      H4269   1.076       .  S
C4255      C4256   1.406       .  A
C4255      C4260   1.415       .  A
C4256      C4257   1.405       .  A
C4256      H4271   1.083       .  S
C4257      C4258   1.432       .  A
C4257      C4261   1.441       .  S
C4258      C4259   1.424       .  A
C4259      C4260   1.405       .  A
C4259      H4272   1.084       .  S
C4260      C4262   1.444       .  S
C4261      N4265   1.158       .  T
C4262      N4266   1.157       .  T
C4263      N4268   1.157       .  T
C4264      N4267   1.157       .  T
C4273      C4274   1.407       .  A
C4273      C4278   1.404       .  A
C4273      C4287   1.445       .  S
C4274      C4279   1.498       .  S
C4274      C4275   1.399       .  A
C4275      C4276   1.405       .  A
C4275      H4294   1.085       .  S
C4276      C4277   1.435       .  A
C4276      C4288   1.446       .  S
C4277      C4278   1.422       .  A
C4278      H4293   1.078       .  S
C4279      C4280   1.401       .  A
C4279      C4284   1.413       .  A
C4280      C4281   1.404       .  A
C4280      H4295   1.085       .  S
C4281      C4282   1.421       .  A
C4281      C4285   1.444       .  S
C4282      C4283   1.409       .  A
C4283      C4284   1.408       .  A
C4283      H4296   1.084       .  S
C4284      C4286   1.444       .  S
C4285      N4289   1.157       .  T
C4286      N4290   1.157       .  T
C4287      N4292   1.157       .  T
C4288      N4291   1.157       .  T
C4297      C4298   1.402       .  A
C4297      C4302   1.399       .  A
C4297      C4311   1.445       .  S
C4298      C4303   1.488       .  S
C4298      C4299   1.399       .  A
C4299      C4300   1.408       .  A
C4299      H4318   1.085       .  S
C4300      C4301   1.432       .  A
C4300      C4312   1.442       .  S
C4301      C4302   1.422       .  A
C4302      H4317   1.082       .  S
C4303      C4304   1.398       .  A
C4303      C4308   1.400       .  A
C4304      C4305   1.410       .  A
C4304      H4319   1.085       .  S
C4305      C4306   1.439       .  A
C4305      C4309   1.442       .  S
C4306      C4307   1.426       .  A
C4307      C4308   1.396       .  A
C4307      H4320   1.084       .  S
C4308      C4310   1.445       .  S
C4309      N4313   1.158       .  T
C4310      N4314   1.157       .  T
C4311      N4316   1.157       .  T
C4312      N4315   1.157       .  T
C4321      C4322   1.407       .  A
C4321      C4326   1.404       .  A
C4321      C4335   1.445       .  S
C4322      C4327   1.500       .  S
C4322      C4323   1.399       .  A
C4323      C4324   1.407       .  A
C4323      H4342   1.085       .  S
C4324      C4325   1.434       .  A
C4324      C4336   1.443       .  S
C4325      C4326   1.423       .  A
C4326      H4341   1.077       .  S
C4327      C4328   1.402       .  A
C4327      C4332   1.415       .  A
C4328      C4329   1.402       .  A
C4328      H4343   1.085       .  S
C4329      C4330   1.421       .  A
C4329      C4333   1.444       .  S
C4330      C4331   1.409       .  A
C4331      C4332   1.409       .  A
C4331      H4344   1.084       .  S
C4332      C4334   1.444       .  S
C4333      N4337   1.157       .  T
C4334      N4338   1.157       .  T
C4335      N4340   1.157       .  T
C4336      N4339   1.157       .  T
C4345      C4346   1.407       .  A
C4345      C4350   1.405       .  A
C4345      C4359   1.443       .  S
C4346      C4351   1.497       .  S
C4346      C4347   1.400       .  A
C4347      C4348   1.403       .  A
C4347      H4366   1.086       .  S
C4348      C4349   1.433       .  A
C4348      C4360   1.443       .  S
C4349      C4350   1.422       .  A
C4350      H4365   1.084       .  S
C4351      C4352   1.402       .  A
C4351      C4356   1.405       .  A
C4352      C4353   1.413       .  A
C4352      H4367   1.085       .  S
C4353      C4354   1.435       .  A
C4353      C4357   1.441       .  S
C4354      C4355   1.420       .  A
C4355      C4356   1.393       .  A
C4355      H4368   1.084       .  S
C4356      C4358   1.445       .  S
C4357      N4361   1.158       .  T
C4358      N4362   1.157       .  T
C4359      N4364   1.157       .  T
C4360      N4363   1.158       .  T
C4369      C4370   1.412       .  A
C4369      C4374   1.404       .  A
C4369      C4383   1.444       .  S
C4370      C4375   1.500       .  S
C4370      C4371   1.405       .  A
C4371      C4372   1.410       .  A
C4371      H4390   1.085       .  S
C4372      C4373   1.420       .  A
C4372      C4384   1.443       .  S
C4373      C4374   1.408       .  A
C4374      H4389   1.085       .  S
C4375      C4376   1.395       .  A
C4375      C4380   1.410       .  A
C4376      C4377   1.400       .  A
C4376      H4391   1.086       .  S
C4377      C4378   1.437       .  A
C4377      C4381   1.444       .  S
C4378      C4379   1.420       .  A
C4379      C4380   1.412       .  A
C4379      H4392   1.080       .  S
C4380      C4382   1.443       .  S
C4381      N4385   1.157       .  T
C4382      N4386   1.157       .  T
C4383      N4388   1.157       .  T
C4384      N4387   1.157       .  T
C4393      C4394   1.409       .  A
C4393      C4398   1.415       .  A
C4393      C4407   1.443       .  S
C4394      C4399   1.509       .  S
C4394      C4395   1.394       .  A
C4395      C4396   1.405       .  A
C4395      H4414   1.086       .  S
C4396      C4397   1.438       .  A
C4396      C4408   1.438       .  S
C4397      C4398   1.425       .  A
C4398      H4413   1.078       .  S
C4399      C4400   1.405       .  A
C4399      C4404   1.410       .  A
C4400      C4401   1.411       .  A
C4400      H4415   1.085       .  S
C4401      C4402   1.430       .  A
C4401      C4405   1.443       .  S
C4402      C4403   1.421       .  A
C4403      C4404   1.408       .  A
C4403      H4416   1.082       .  S
C4404      C4406   1.443       .  S
C4405      N4409   1.158       .  T
C4406      N4410   1.157       .  T
C4407      N4412   1.157       .  T
C4408      N4411   1.157       .  T
C4417      C4418   1.410       .  A
C4417      C4422   1.412       .  A
C4417      C4431   1.442       .  S
C4418      C4423   1.503       .  S
C4418      C4419   1.397       .  A
C4419      C4420   1.398       .  A
C4419      H4438   1.086       .  S
C4420      C4421   1.436       .  A
C4420      C4432   1.443       .  S
C4421      C4422   1.421       .  A
C4422      H4437   1.079       .  S
C4423      C4424   1.403       .  A
C4423      C4428   1.410       .  A
C4424      C4425   1.411       .  A
C4424      H4439   1.084       .  S
C4425      C4426   1.434       .  A
C4425      C4429   1.444       .  S
C4426      C4427   1.419       .  A
C4427      C4428   1.396       .  A
C4427      H4440   1.075       .  S
C4428      C4430   1.446       .  S
C4429      N4433   1.157       .  T
C4430      N4434   1.157       .  T
C4431      N4436   1.157       .  T
C4432      N4435   1.158       .  T
C4441      C4442   1.421       .  A
C4441      C4446   1.415       .  A
C4441      C4455   1.442       .  S
C4442      C4447   1.521       .  S
C4442      C4443   1.401       .  A
C4443      C4444   1.398       .  A
C4443      H4462   1.085       .  S
C4444      C4445   1.432       .  A
C4444      C4456   1.442       .  S
C4445      C4446   1.418       .  A
C4446      H4461   1.085       .  S
C4447      C4448   1.407       .  A
C4447      C4452   1.420       .  A
C4448      C4449   1.412       .  A
C4448      H4463   1.080       .  S
C4449      C4450   1.435       .  A
C4449      C4453   1.445       .  S
C4450      C4451   1.414       .  A
C4451      C4452   1.396       .  A
C4451      H4464   1.071       .  S
C4452      C4454   1.448       .  S
C4453      N4457   1.157       .  T
C4454      N4458   1.157       .  T
C4455      N4460   1.158       .  T
C4456      N4459   1.157       .  T
C4465      C4466   1.402       .  A
C4465      C4470   1.394       .  A
C4465      C4479   1.448       .  S
C4466      C4471   1.499       .  S
C4466      C4467   1.405       .  A
C4467      C4468   1.416       .  A
C4467      H4486   1.084       .  S
C4468      C4469   1.434       .  A
C4468      C4480   1.444       .  S
C4469      C4470   1.424       .  A
C4470      H4485   1.072       .  S
C4471      C4472   1.406       .  A
C4471      C4476   1.413       .  A
C4472      C4473   1.409       .  A
C4472      H4487   1.084       .  S
C4473      C4474   1.418       .  A
C4473      C4477   1.444       .  S
C4474      C4475   1.404       .  A
C4475      C4476   1.401       .  A
C4475      H4488   1.085       .  S
C4476      C4478   1.444       .  S
C4477      N4481   1.157       .  T
C4478      N4482   1.157       .  T
C4479      N4484   1.157       .  T
C4480      N4483   1.157       .  T
C4489      C4490   1.404       .  A
C4489      C4494   1.404       .  A
C4489      C4503   1.444       .  S
C4490      C4495   1.499       .  S
C4490      C4491   1.404       .  A
C4491      C4492   1.412       .  A
C4491      H4510   1.085       .  S
C4492      C4493   1.428       .  A
C4492      C4504   1.442       .  S
C4493      C4494   1.422       .  A
C4494      H4509   1.083       .  S
C4495      C4496   1.402       .  A
C4495      C4500   1.403       .  A
C4496      C4497   1.412       .  A
C4496      H4511   1.085       .  S
C4497      C4498   1.433       .  A
C4497      C4501   1.443       .  S
C4498      C4499   1.421       .  A
C4499      C4500   1.403       .  A
C4499      H4512   1.081       .  S
C4500      C4502   1.443       .  S
C4501      N4505   1.158       .  T
C4502      N4506   1.157       .  T
C4503      N4508   1.157       .  T
C4504      N4507   1.158       .  T
C4513      C4514   1.411       .  A
C4513      C4518   1.403       .  A
C4513      C4527   1.444       .  S
C4514      C4519   1.504       .  S
C4514      C4515   1.405       .  A
C4515      C4516   1.407       .  A
C4515      H4534   1.084       .  S
C4516      C4517   1.426       .  A
C4516      C4528   1.443       .  S
C4517      C4518   1.417       .  A
C4518      H4533   1.083       .  S
C4519      C4520   1.408       .  A
C4519      C4524   1.412       .  A
C4520      C4521   1.408       .  A
C4520      H4535   1.085       .  S
C4521      C4522   1.417       .  A
C4521      C4525   1.443       .  S
C4522      C4523   1.410       .  A
C4523      C4524   1.405       .  A
C4523      H4536   1.084       .  S
C4524      C4526   1.444       .  S
C4525      N4529   1.157       .  T
C4526      N4530   1.157       .  T
C4527      N4532   1.157       .  T
C4528      N4531   1.158       .  T
C4537      C4538   1.405       .  A
C4537      C4542   1.403       .  A
C4537      C4551   1.446       .  S
C4538      C4543   1.506       .  S
C4538      C4539   1.405       .  A
C4539      C4540   1.410       .  A
C4539      H4558   1.084       .  S
C4540      C4541   1.434       .  A
C4540      C4552   1.445       .  S
C4541      C4542   1.426       .  A
C4542      H4557   1.072       .  S
C4543      C4544   1.406       .  A
C4543      C4548   1.405       .  A
C4544      C4545   1.413       .  A
C4544      H4559   1.085       .  S
C4545      C4546   1.431       .  A
C4545      C4549   1.443       .  S
C4546      C4547   1.425       .  A
C4547      C4548   1.400       .  A
C4547      H4560   1.077       .  S
C4548      C4550   1.446       .  S
C4549      N4553   1.157       .  T
C4550      N4554   1.157       .  T
C4551      N4556   1.157       .  T
C4552      N4555   1.157       .  T
C4561      C4562   1.407       .  A
C4561      C4566   1.404       .  A
C4561      C4575   1.443       .  S
C4562      C4567   1.491       .  S
C4562      C4563   1.405       .  A
C4563      C4564   1.406       .  A
C4563      H4582   1.083       .  S
C4564      C4565   1.416       .  A
C4564      C4576   1.444       .  S
C4565      C4566   1.410       .  A
C4566      H4581   1.084       .  S
C4567      C4568   1.393       .  A
C4567      C4572   1.408       .  A
C4568      C4569   1.400       .  A
C4568      H4583   1.086       .  S
C4569      C4570   1.437       .  A
C4569      C4573   1.445       .  S
C4570      C4571   1.420       .  A
C4571      C4572   1.410       .  A
C4571      H4584   1.080       .  S
C4572      C4574   1.443       .  S
C4573      N4577   1.158       .  T
C4574      N4578   1.157       .  T
C4575      N4580   1.157       .  T
C4576      N4579   1.157       .  T
C4585      C4586   1.400       .  A
C4585      C4590   1.402       .  A
C4585      C4599   1.444       .  S
C4586      C4591   1.480       .  S
C4586      C4587   1.397       .  A
C4587      C4588   1.398       .  A
C4587      H4606   1.086       .  S
C4588      C4589   1.432       .  A
C4588      C4600   1.444       .  S
C4589      C4590   1.426       .  A
C4590      H4605   1.077       .  S
C4591      C4592   1.390       .  A
C4591      C4596   1.406       .  A
C4592      C4593   1.392       .  A
C4592      H4607   1.086       .  S
C4593      C4594   1.437       .  A
C4593      C4597   1.444       .  S
C4594      C4595   1.420       .  A
C4595      C4596   1.408       .  A
C4595      H4608   1.084       .  S
C4596      C4598   1.442       .  S
C4597      N4601   1.157       .  T
C4598      N4602   1.157       .  T
C4599      N4604   1.157       .  T
C4600      N4603   1.157       .  T
C4609      C4610   1.409       .  A
C4609      C4614   1.401       .  A
C4609      C4623   1.444       .  S
C4610      C4615   1.490       .  S
C4610      C4611   1.405       .  A
C4611      C4612   1.404       .  A
C4611      H4630   1.085       .  S
C4612      C4613   1.415       .  A
C4612      C4624   1.443       .  S
C4613      C4614   1.409       .  A
C4614      H4629   1.084       .  S
C4615      C4616   1.400       .  A
C4615      C4620   1.407       .  A
C4616      C4617   1.403       .  A
C4616      H4631   1.085       .  S
C4617      C4618   1.431       .  A
C4617      C4621   1.444       .  S
C4618      C4619   1.420       .  A
C4619      C4620   1.400       .  A
C4619      H4632   1.084       .  S
C4620      C4622   1.444       .  S
C4621      N4625   1.158       .  T
C4622      N4626   1.157       .  T
C4623      N4628   1.157       .  T
C4624      N4627   1.157       .  T
C4633      C4634   1.411       .  A
C4633      C4638   1.398       .  A
C4633      C4647   1.445       .  S
C4634      C4639   1.510       .  S
C4634      C4635   1.407       .  A
C4635      C4636   1.412       .  A
C4635      H4654   1.084       .  S
C4636      C4637   1.430       .  A
C4636      C4648   1.441       .  S
C4637      C4638   1.420       .  A
C4638      H4653   1.083       .  S
C4639      C4640   1.405       .  A
C4639      C4644   1.409       .  A
C4640      C4641   1.406       .  A
C4640      H4655   1.085       .  S
C4641      C4642   1.431       .  A
C4641      C4645   1.443       .  S
C4642      C4643   1.421       .  A
C4643      C4644   1.404       .  A
C4643      H4656   1.081       .  S
C4644      C4646   1.444       .  S
C4645      N4649   1.158       .  T
C4646      N4650   1.157       .  T
C4647      N4652   1.157       .  T
C4648      N4651   1.158       .  T
C4657      C4658   1.404       .  A
C4657      C4662   1.392       .  A
C4657      C4671   1.444       .  S
C4658      C4663   1.485       .  S
C4658      C4659   1.397       .  A
C4659      C4660   1.407       .  A
C4659      H4678   1.085       .  S
C4660      C4661   1.436       .  A
C4660      C4672   1.443       .  S
C4661      C4662   1.418       .  A
C4662      H4677   1.083       .  S
C4663      C4664   1.401       .  A
C4663      C4668   1.397       .  A
C4664      C4665   1.411       .  A
C4664      H4679   1.085       .  S
C4665      C4666   1.434       .  A
C4665      C4669   1.444       .  S
C4666      C4667   1.427       .  A
C4667      C4668   1.391       .  A
C4667      H4680   1.073       .  S
C4668      C4670   1.448       .  S
C4669      N4673   1.157       .  T
C4670      N4674   1.157       .  T
C4671      N4676   1.157       .  T
C4672      N4675   1.158       .  T
C4681      C4682   1.402       .  A
C4681      C4686   1.394       .  A
C4681      C4695   1.444       .  S
C4682      C4687   1.483       .  S
C4682      C4683   1.401       .  A
C4683      C4684   1.407       .  A
C4683      H4702   1.085       .  S
C4684      C4685   1.428       .  A
C4684      C4696   1.442       .  S
C4685      C4686   1.419       .  A
C4686      H4701   1.082       .  S
C4687      C4688   1.398       .  A
C4687      C4692   1.398       .  A
C4688      C4689   1.402       .  A
C4688      H4703   1.086       .  S
C4689      C4690   1.432       .  A
C4689      C4693   1.444       .  S
C4690      C4691   1.426       .  A
C4691      C4692   1.400       .  A
C4691      H4704   1.078       .  S
C4692      C4694   1.444       .  S
C4693      N4697   1.158       .  T
C4694      N4698   1.157       .  T
C4695      N4700   1.157       .  T
C4696      N4699   1.157       .  T
C4705      C4706   1.400       .  A
C4705      C4710   1.396       .  A
C4705      C4719   1.446       .  S
C4706      C4711   1.495       .  S
C4706      C4707   1.402       .  A
C4707      C4708   1.414       .  A
C4707      H4726   1.085       .  S
C4708      C4709   1.433       .  A
C4708      C4720   1.442       .  S
C4709      C4710   1.425       .  A
C4710      H4725   1.078       .  S
C4711      C4712   1.406       .  A
C4711      C4716   1.411       .  A
C4712      C4713   1.410       .  A
C4712      H4727   1.084       .  S
C4713      C4714   1.416       .  A
C4713      C4717   1.443       .  S
C4714      C4715   1.405       .  A
C4715      C4716   1.401       .  A
C4715      H4728   1.085       .  S
C4716      C4718   1.444       .  S
C4717      N4721   1.157       .  T
C4718      N4722   1.157       .  T
C4719      N4724   1.157       .  T
C4720      N4723   1.157       .  T
C4729      C4730   1.413       .  A
C4729      C4734   1.411       .  A
C4729      C4743   1.444       .  S
C4730      C4735   1.515       .  S
C4730      C4731   1.402       .  A
C4731      C4732   1.409       .  A
C4731      H4750   1.085       .  S
C4732      C4733   1.431       .  A
C4732      C4744   1.442       .  S
C4733      C4734   1.423       .  A
C4734      H4749   1.079       .  S
C4735      C4736   1.402       .  A
C4735      C4740   1.412       .  A
C4736      C4737   1.410       .  A
C4736      H4751   1.085       .  S
C4737      C4738   1.437       .  A
C4737      C4741   1.443       .  S
C4738      C4739   1.420       .  A
C4739      C4740   1.409       .  A
C4739      H4752   1.084       .  S
C4740      C4742   1.444       .  S
C4741      N4745   1.158       .  T
C4742      N4746   1.157       .  T
C4743      N4748   1.157       .  T
C4744      N4747   1.157       .  T
C4753      C4754   1.402       .  A
C4753      C4758   1.401       .  A
C4753      C4767   1.445       .  S
C4754      C4759   1.489       .  S
C4754      C4755   1.397       .  A
C4755      C4756   1.405       .  A
C4755      H4774   1.085       .  S
C4756      C4757   1.434       .  A
C4756      C4768   1.445       .  S
C4757      C4758   1.422       .  A
C4758      H4773   1.076       .  S
C4759      C4760   1.399       .  A
C4759      C4764   1.411       .  A
C4760      C4761   1.402       .  A
C4760      H4775   1.085       .  S
C4761      C4762   1.420       .  A
C4761      C4765   1.445       .  S
C4762      C4763   1.405       .  A
C4763      C4764   1.405       .  A
C4763      H4776   1.084       .  S
C4764      C4766   1.442       .  S
C4765      N4769   1.157       .  T
C4766      N4770   1.157       .  T
C4767      N4772   1.157       .  T
C4768      N4771   1.157       .  T
C4777      C4778   1.408       .  A
C4777      C4782   1.399       .  A
C4777      C4791   1.444       .  S
C4778      C4783   1.497       .  S
C4778      C4779   1.400       .  A
C4779      C4780   1.409       .  A
C4779      H4798   1.085       .  S
C4780      C4781   1.435       .  A
C4780      C4792   1.444       .  S
C4781      C4782   1.416       .  A
C4782      H4797   1.080       .  S
C4783      C4784   1.393       .  A
C4783      C4788   1.409       .  A
C4784      C4785   1.393       .  A
C4784      H4799   1.086       .  S
C4785      C4786   1.436       .  A
C4785      C4789   1.443       .  S
C4786      C4787   1.422       .  A
C4787      C4788   1.414       .  A
C4787      H4800   1.080       .  S
C4788      C4790   1.442       .  S
C4789      N4793   1.156       .  T
C4790      N4794   1.157       .  T
C4791      N4796   1.157       .  T
C4792      N4795   1.157       .  T
C4801      C4802   1.415       .  A
C4801      C4806   1.408       .  A
C4801      C4815   1.444       .  S
C4802      C4807   1.504       .  S
C4802      C4803   1.406       .  A
C4803      C4804   1.405       .  A
C4803      H4822   1.084       .  S
C4804      C4805   1.416       .  A
C4804      C4816   1.444       .  S
C4805      C4806   1.408       .  A
C4806      H4821   1.084       .  S
C4807      C4808   1.404       .  A
C4807      C4812   1.406       .  A
C4808      C4809   1.413       .  A
C4808      H4823   1.085       .  S
C4809      C4810   1.434       .  A
C4809      C4813   1.442       .  S
C4810      C4811   1.423       .  A
C4811      C4812   1.399       .  A
C4811      H4824   1.084       .  S
C4812      C4814   1.445       .  S
C4813      N4817   1.158       .  T
C4814      N4818   1.157       .  T
C4815      N4820   1.157       .  T
C4816      N4819   1.157       .  T
C4825      C4826   1.422       .  A
C4825      C4830   1.413       .  A
C4825      C4839   1.443       .  S
C4826      C4831   1.528       .  S
C4826      C4827   1.404       .  A
C4827      C4828   1.401       .  A
C4827      H4846   1.081       .  S
C4828      C4829   1.431       .  A
C4828      C4840   1.444       .  S
C4829      C4830   1.418       .  A
C4830      H4845   1.084       .  S
C4831      C4832   1.406       .  A
C4831      C4836   1.419       .  A
C4832      C4833   1.412       .  A
C4832      H4847   1.083       .  S
C4833      C4834   1.435       .  A
C4833      C4837   1.441       .  S
C4834      C4835   1.418       .  A
C4835      C4836   1.405       .  A
C4835      H4848   1.074       .  S
C4836      C4838   1.446       .  S
C4837      N4841   1.157       .  T
C4838      N4842   1.157       .  T
C4839      N4844   1.157       .  T
C4840      N4843   1.158       .  T
C4849      C4850   1.405       .  A
C4849      C4854   1.405       .  A
C4849      C4863   1.443       .  S
C4850      C4855   1.494       .  S
C4850      C4851   1.398       .  A
C4851      C4852   1.399       .  A
C4851      H4870   1.085       .  S
C4852      C4853   1.436       .  A
C4852      C4864   1.447       .  S
C4853      C4854   1.422       .  A
C4854      H4869   1.078       .  S
C4855      C4856   1.398       .  A
C4855      C4860   1.403       .  A
C4856      C4857   1.407       .  A
C4856      H4871   1.085       .  S
C4857      C4858   1.436       .  A
C4857      C4861   1.444       .  S
C4858      C4859   1.424       .  A
C4859      C4860   1.397       .  A
C4859      H4872   1.075       .  S
C4860      C4862   1.445       .  S
C4861      N4865   1.157       .  T
C4862      N4866   1.157       .  T
C4863      N4868   1.157       .  T
C4864      N4867   1.158       .  T
C4873      C4874   1.406       .  A
C4873      C4878   1.403       .  A
C4873      C4887   1.445       .  S
C4874      C4879   1.495       .  S
C4874      C4875   1.402       .  A
C4875      C4876   1.409       .  A
C4875      H4894   1.085       .  S
C4876      C4877   1.429       .  A
C4876      C4888   1.443       .  S
C4877      C4878   1.421       .  A
C4878      H4893   1.080       .  S
C4879      C4880   1.401       .  A
C4879      C4884   1.412       .  A
C4880      C4881   1.404       .  A
C4880      H4895   1.085       .  S
C4881      C4882   1.422       .  A
C4881      C4885   1.444       .  S
C4882      C4883   1.407       .  A
C4883      C4884   1.405       .  A
C4883      H4896   1.084       .  S
C4884      C4886   1.442       .  S
C4885      N4889   1.157       .  T
C4886      N4890   1.157       .  T
C4887      N4892   1.157       .  T
C4888      N4891   1.157       .  T
C4897      C4898   1.414       .  A
C4897      C4902   1.405       .  A
C4897      C4911   1.445       .  S
C4898      C4903   1.526       .  S
C4898      C4899   1.412       .  A
C4899      C4900   1.415       .  A
C4899      H4918   1.060       .  S
C4900      C4901   1.433       .  A
C4900      C4912   1.441       .  S
C4901      C4902   1.425       .  A
C4902      H4917   1.063       .  S
C4903      C4904   1.408       .  A
C4903      C4908   1.415       .  A
C4904      C4905   1.410       .  A
C4904      H4919   1.071       .  S
C4905      C4906   1.433       .  A
C4905      C4909   1.443       .  S
C4906      C4907   1.423       .  A
C4907      C4908   1.410       .  A
C4907      H4920   1.052       .  S
C4908      C4910   1.445       .  S
C4909      N4913   1.157       .  T
C4910      N4914   1.157       .  T
C4911      N4916   1.157       .  T
C4912      N4915   1.158       .  T
C4921      C4922   1.406       .  A
C4921      C4926   1.393       .  A
C4921      C4935   1.446       .  S
C4922      C4927   1.492       .  S
C4922      C4923   1.403       .  A
C4923      C4924   1.405       .  A
C4923      H4942   1.080       .  S
C4924      C4925   1.429       .  A
C4924      C4936   1.444       .  S
C4925      C4926   1.421       .  A
C4926      H4941   1.070       .  S
C4927      C4928   1.400       .  A
C4927      C4932   1.405       .  A
C4928      C4929   1.401       .  A
C4928      H4943   1.085       .  S
C4929      C4930   1.435       .  A
C4929      C4933   1.446       .  S
C4930      C4931   1.421       .  A
C4931      C4932   1.395       .  A
C4931      H4944   1.074       .  S
C4932      C4934   1.445       .  S
C4933      N4937   1.157       .  T
C4934      N4938   1.157       .  T
C4935      N4940   1.157       .  T
C4936      N4939   1.157       .  T
C4945      C4946   1.400       .  A
C4945      C4950   1.390       .  A
C4945      C4959   1.444       .  S
C4946      C4951   1.484       .  S
C4946      C4947   1.400       .  A
C4947      C4948   1.410       .  A
C4947      H4966   1.085       .  S
C4948      C4949   1.432       .  A
C4948      C4960   1.441       .  S
C4949      C4950   1.422       .  A
C4950      H4965   1.081       .  S
C4951      C4952   1.396       .  A
C4951      C4956   1.403       .  A
C4952      C4953   1.407       .  A
C4952      H4967   1.085       .  S
C4953      C4954   1.433       .  A
C4953      C4957   1.442       .  S
C4954      C4955   1.420       .  A
C4955      C4956   1.396       .  A
C4955      H4968   1.081       .  S
C4956      C4958   1.445       .  S
C4957      N4961   1.157       .  T
C4958      N4962   1.157       .  T
C4959      N4964   1.157       .  T
C4960      N4963   1.158       .  T
C4969      C4970   1.408       .  A
C4969      C4974   1.406       .  A
C4969      C4983   1.443       .  S
C4970      C4975   1.499       .  S
C4970      C4971   1.393       .  A
C4971      C4972   1.400       .  A
C4971      H4990   1.087       .  S
C4972      C4973   1.444       .  A
C4972      C4984   1.441       .  S
C4973      C4974   1.422       .  A
C4974      H4989   1.085       .  S
C4975      C4976   1.406       .  A
C4975      C4980   1.414       .  A
C4976      C4977   1.405       .  A
C4976      H4991   1.085       .  S
C4977      C4978   1.418       .  A
C4977      C4981   1.444       .  S
C4978      C4979   1.408       .  A
C4979      C4980   1.402       .  A
C4979      H4992   1.084       .  S
C4980      C4982   1.445       .  S
C4981      N4985   1.157       .  T
C4982      N4986   1.157       .  T
C4983      N4988   1.157       .  T
C4984      N4987   1.157       .  T
C4993      C4994   1.409       .  A
C4993      C4998   1.405       .  A
C4993      C5007   1.443       .  S
C4994      C4999   1.508       .  S
C4994      C4995   1.402       .  A
C4995      C4996   1.412       .  A
C4995      H5014   1.085       .  S
C4996      C4997   1.438       .  A
C4996      C5008   1.444       .  S
C4997      C4998   1.419       .  A
C4998      H5013   1.085       .  S
C4999      C5000   1.399       .  A
C4999      C5004   1.410       .  A
C5000      C5001   1.407       .  A
C5000      H5015   1.085       .  S
C5001      C5002   1.438       .  A
C5001      C5005   1.444       .  S
C5002      C5003   1.421       .  A
C5003      C5004   1.410       .  A
C5003      H5016   1.084       .  S
C5004      C5006   1.443       .  S
C5005      N5009   1.158       .  T
C5006      N5010   1.157       .  T
C5007      N5012   1.157       .  T
C5008      N5011   1.158       .  T
C5017      C5018   1.409       .  A
C5017      C5022   1.407       .  A
C5017      C5031   1.444       .  S
C5018      C5023   1.504       .  S
C5018      C5019   1.400       .  A
C5019      C5020   1.405       .  A
C5019      H5038   1.085       .  S
C5020      C5021   1.433       .  A
C5020      C5032   1.442       .  S
C5021      C5022   1.420       .  A
C5022      H5037   1.079       .  S
C5023      C5024   1.403       .  A
C5023      C5028   1.415       .  A
C5024      C5025   1.407       .  A
C5024      H5039   1.084       .  S
C5025      C5026   1.422       .  A
C5025      C5029   1.444       .  S
C5026      C5027   1.408       .  A
C5027      C5028   1.407       .  A
C5027      H5040   1.084       .  S
C5028      C5030   1.443       .  S
C5029      N5033   1.157       .  T
C5030      N5034   1.157       .  T
C5031      N5036   1.157       .  T
C5032      N5035   1.157       .  T
C5041      C5042   1.403       .  A
C5041      C5046   1.403       .  A
C5041      C5055   1.446       .  S
C5042      C5047   1.494       .  S
C5042      C5043   1.392       .  A
C5043      C5044   1.408       .  A
C5043      H5062   1.086       .  S
C5044      C5045   1.440       .  A
C5044      C5056   1.438       .  S
C5045      C5046   1.428       .  A
C5046      H5061   1.078       .  S
C5047      C5048   1.394       .  A
C5047      C5052   1.408       .  A
C5048      C5049   1.398       .  A
C5048      H5063   1.086       .  S
C5049      C5050   1.434       .  A
C5049      C5053   1.443       .  S
C5050      C5051   1.419       .  A
C5051      C5052   1.409       .  A
C5051      H5064   1.079       .  S
C5052      C5054   1.443       .  S
C5053      N5057   1.157       .  T
C5054      N5058   1.157       .  T
C5055      N5060   1.157       .  T
C5056      N5059   1.158       .  T
C5065      C5066   1.407       .  A
C5065      C5070   1.404       .  A
C5065      C5079   1.446       .  S
C5066      C5071   1.502       .  S
C5066      C5067   1.402       .  A
C5067      C5068   1.403       .  A
C5067      H5086   1.085       .  S
C5068      C5069   1.424       .  A
C5068      C5080   1.442       .  S
C5069      C5070   1.427       .  A
C5070      H5085   1.073       .  S
C5071      C5072   1.405       .  A
C5071      C5076   1.408       .  A
C5072      C5073   1.410       .  A
C5072      H5087   1.084       .  S
C5073      C5074   1.431       .  A
C5073      C5077   1.445       .  S
C5074      C5075   1.420       .  A
C5075      C5076   1.396       .  A
C5075      H5088   1.074       .  S
C5076      C5078   1.447       .  S
C5077      N5081   1.157       .  T
C5078      N5082   1.157       .  T
C5079      N5084   1.157       .  T
C5080      N5083   1.158       .  T
C5089      C5090   1.413       .  A
C5089      C5094   1.410       .  A
C5089      C5103   1.443       .  S
C5090      C5095   1.502       .  S
C5090      C5091   1.397       .  A
C5091      C5092   1.400       .  A
C5091      H5110   1.085       .  S
C5092      C5093   1.433       .  A
C5092      C5104   1.444       .  S
C5093      C5094   1.417       .  A
C5094      H5109   1.081       .  S
C5095      C5096   1.408       .  A
C5095      C5100   1.410       .  A
C5096      C5097   1.408       .  A
C5096      H5111   1.085       .  S
C5097      C5098   1.417       .  A
C5097      C5101   1.443       .  S
C5098      C5099   1.412       .  A
C5099      C5100   1.406       .  A
C5099      H5112   1.084       .  S
C5100      C5102   1.444       .  S
C5101      N5105   1.157       .  T
C5102      N5106   1.157       .  T
C5103      N5108   1.157       .  T
C5104      N5107   1.158       .  T
C5113      C5114   1.410       .  A
C5113      C5118   1.400       .  A
C5113      C5127   1.445       .  S
C5114      C5119   1.508       .  S
C5114      C5115   1.407       .  A
C5115      C5116   1.412       .  A
C5115      H5134   1.084       .  S
C5116      C5117   1.427       .  A
C5116      C5128   1.442       .  S
C5117      C5118   1.419       .  A
C5118      H5133   1.082       .  S
C5119      C5120   1.401       .  A
C5119      C5124   1.413       .  A
C5120      C5121   1.407       .  A
C5120      H5135   1.085       .  S
C5121      C5122   1.433       .  A
C5121      C5125   1.444       .  S
C5122      C5123   1.418       .  A
C5123      C5124   1.406       .  A
C5123      H5136   1.078       .  S
C5124      C5126   1.445       .  S
C5125      N5129   1.157       .  T
C5126      N5130   1.157       .  T
C5127      N5132   1.157       .  T
C5128      N5131   1.158       .  T
C5137      C5138   1.399       .  A
C5137      C5142   1.402       .  A
C5137      C5151   1.443       .  S
C5138      C5143   1.476       .  S
C5138      C5139   1.394       .  A
C5139      C5140   1.398       .  A
C5139      H5158   1.086       .  S
C5140      C5141   1.432       .  A
C5140      C5152   1.442       .  S
C5141      C5142   1.425       .  A
C5142      H5157   1.079       .  S
C5143      C5144   1.391       .  A
C5143      C5148   1.405       .  A
C5144      C5145   1.395       .  A
C5144      H5159   1.086       .  S
C5145      C5146   1.434       .  A
C5145      C5149   1.442       .  S
C5146      C5147   1.420       .  A
C5147      C5148   1.403       .  A
C5147      H5160   1.085       .  S
C5148      C5150   1.442       .  S
C5149      N5153   1.158       .  T
C5150      N5154   1.157       .  T
C5151      N5156   1.157       .  T
C5152      N5155   1.157       .  T
C5161      C5162   1.401       .  A
C5161      C5166   1.392       .  A
C5161      C5175   1.447       .  S
C5162      C5167   1.495       .  S
C5162      C5163   1.405       .  A
C5163      C5164   1.415       .  A
C5163      H5182   1.084       .  S
C5164      C5165   1.430       .  A
C5164      C5176   1.444       .  S
C5165      C5166   1.424       .  A
C5166      H5181   1.077       .  S
C5167      C5168   1.404       .  A
C5167      C5172   1.413       .  A
C5168      C5169   1.408       .  A
C5168      H5183   1.085       .  S
C5169      C5170   1.419       .  A
C5169      C5173   1.444       .  S
C5170      C5171   1.406       .  A
C5171      C5172   1.401       .  A
C5171      H5184   1.085       .  S
C5172      C5174   1.445       .  S
C5173      N5177   1.157       .  T
C5174      N5178   1.157       .  T
C5175      N5180   1.157       .  T
C5176      N5179   1.157       .  T
C5185      C5186   1.413       .  A
C5185      C5190   1.410       .  A
C5185      C5199   1.443       .  S
C5186      C5191   1.508       .  S
C5186      C5187   1.401       .  A
C5187      C5188   1.406       .  A
C5187      H5206   1.085       .  S
C5188      C5189   1.433       .  A
C5188      C5200   1.444       .  S
C5189      C5190   1.418       .  A
C5190      H5205   1.080       .  S
C5191      C5192   1.403       .  A
C5191      C5196   1.409       .  A
C5192      C5193   1.412       .  A
C5192      H5207   1.085       .  S
C5193      C5194   1.435       .  A
C5193      C5197   1.442       .  S
C5194      C5195   1.420       .  A
C5195      C5196   1.404       .  A
C5195      H5208   1.083       .  S
C5196      C5198   1.444       .  S
C5197      N5201   1.158       .  T
C5198      N5202   1.157       .  T
C5199      N5204   1.157       .  T
C5200      N5203   1.157       .  T
C5209      C5210   1.403       .  A
C5209      C5214   1.398       .  A
C5209      C5223   1.443       .  S
C5210      C5215   1.481       .  S
C5210      C5211   1.391       .  A
C5211      C5212   1.403       .  A
C5211      H5230   1.086       .  S
C5212      C5213   1.441       .  A
C5212      C5224   1.443       .  S
C5213      C5214   1.418       .  A
C5214      H5229   1.081       .  S
C5215      C5216   1.396       .  A
C5215      C5220   1.405       .  A
C5216      C5217   1.399       .  A
C5216      H5231   1.085       .  S
C5217      C5218   1.427       .  A
C5217      C5221   1.442       .  S
C5218      C5219   1.418       .  A
C5219      C5220   1.403       .  A
C5219      H5232   1.084       .  S
C5220      C5222   1.443       .  S
C5221      N5225   1.157       .  T
C5222      N5226   1.157       .  T
C5223      N5228   1.157       .  T
C5224      N5227   1.157       .  T
C5233      C5234   1.408       .  A
C5233      C5238   1.413       .  A
C5233      C5247   1.442       .  S
C5234      C5239   1.500       .  S
C5234      C5235   1.391       .  A
C5235      C5236   1.398       .  A
C5235      H5254   1.087       .  S
C5236      C5237   1.441       .  A
C5236      C5248   1.440       .  S
C5237      C5238   1.423       .  A
C5238      H5253   1.082       .  S
C5239      C5240   1.398       .  A
C5239      C5244   1.405       .  A
C5240      C5241   1.401       .  A
C5240      H5255   1.086       .  S
C5241      C5242   1.437       .  A
C5241      C5245   1.445       .  S
C5242      C5243   1.426       .  A
C5243      C5244   1.410       .  A
C5243      H5256   1.077       .  S
C5244      C5246   1.443       .  S
C5245      N5249   1.158       .  T
C5246      N5250   1.157       .  T
C5247      N5252   1.157       .  T
C5248      N5251   1.156       .  T
C5257      C5258   1.421       .  A
C5257      C5262   1.409       .  A
C5257      C5271   1.443       .  S
C5258      C5263   1.503       .  S
C5258      C5259   1.404       .  A
C5259      C5260   1.402       .  A
C5259      H5278   1.085       .  S
C5260      C5261   1.413       .  A
C5260      C5272   1.444       .  S
C5261      C5262   1.402       .  A
C5262      H5277   1.085       .  S
C5263      C5264   1.403       .  A
C5263      C5268   1.410       .  A
C5264      C5265   1.404       .  A
C5264      H5279   1.085       .  S
C5265      C5266   1.429       .  A
C5265      C5269   1.443       .  S
C5266      C5267   1.421       .  A
C5267      C5268   1.408       .  A
C5267      H5280   1.079       .  S
C5268      C5270   1.444       .  S
C5269      N5273   1.157       .  T
C5270      N5274   1.157       .  T
C5271      N5276   1.158       .  T
C5272      N5275   1.157       .  T
