geometry optimzed in LAMMPS
_audit_creation_date              2020-11-30 
_audit_creation_method            'lammps2cif' 
_symmetry_space_group_name_H-M    'P1' 
_symmetry_Int_Tables_number       1 
_symmetry_cell_setting            triclinic 
loop_ 
_symmetry_equiv_pos_as_xyz 
  x,y,z 
_cell_length_a                    44.13527023 
_cell_length_b                    43.81300614014117 
_cell_length_c                    43.752707715208196 
_cell_angle_alpha                 90.19376436056366 
_cell_angle_beta                  89.97328107508339 
_cell_angle_gamma                 90.021864575899 
loop_ 
_atom_site_label 
_atom_site_type_symbol 
_atom_site_fract_x 
_atom_site_fract_y 
_atom_site_fract_z 
_atom_site_charge 
O1          O  0.00027785  0.05658027  0.08395714    -0.81100
O2          O  0.99911398  0.04593318  0.41074437    -0.82700
O3          O  0.05111922  0.08532785  0.99747317    -0.79700
O4          O  0.44952965  0.08737440  0.99563495    -0.78100
O5          O  0.41333004  0.05074250  0.99154268    -0.79800
O6          O  0.08659125  0.04858575  0.00402651    -0.80800
O7          O  0.99962896  0.08477732  0.44602860    -0.82100
O8          O  0.00209112  0.09138779  0.04501330    -0.82400
Eu9        Eu  0.99978978  0.06221086  0.99708426     2.39200
O10         O  0.46983636  0.02979303  0.46640131    -0.89900
O11         O  0.02909436  0.03226220  0.03018265    -0.93500
C12         C  0.00206007  0.08418233  0.07355428     1.01200
C13         C  0.99907011  0.07447247  0.41841394     1.01000
C14         C  0.07881926  0.07671666  0.00165240     1.00900
C15         C  0.42161698  0.07888330  0.99271572     0.98800
H16         H  0.04388190  0.04164333  0.45527882     0.28600
O17         O  0.03096491  0.02940476  0.46818054    -1.02300
H18         H  0.45435889  0.04705690  0.04051913     0.28600
O19         O  0.46723700  0.03355991  0.02880146    -1.04800
O20         O  0.00312196  0.44413111  0.41691232    -0.82100
O21         O  0.99920387  0.45558803  0.09097915    -0.81600
O22         O  0.08676849  0.00022976  0.45029316    -0.80000
O23         O  0.41490904  0.99634643  0.44548749    -0.83400
O24         O  0.41014681  0.00324169  0.04673296    -0.81200
O25         O  0.08305311  0.99934656  0.05382449    -0.79900
O26         O  0.04832485  0.41300181  0.00468362    -0.81400
O27         O  0.44740641  0.41414734  0.00781207    -0.83300
O28         O  0.08431261  0.44938891  0.99882440    -0.80100
O29         O  0.41214101  0.45174692  0.00437334    -0.82700
O30         O  0.05057480  0.99860841  0.41305432    -0.78500
O31         O  0.04535329  0.00248545  0.08968619    -0.78500
O32         O  0.44555450  0.00272083  0.08511259    -0.78100
O33         O  0.45291711  0.99292992  0.41020850    -0.81600
O34         O  0.99882733  0.40938200  0.45579962    -0.81100
O35         O  0.99855994  0.41656725  0.05633638    -0.79400
Eu36       Eu  0.00087353  0.99651948  0.43805599     2.39800
Eu37       Eu  0.99699511  0.00401806  0.06237583     2.39600
Eu38       Eu  0.06059041  0.99961027  0.00136264     2.38400
Eu39       Eu  0.43757568  0.00086947  0.99759345     2.39900
Eu40       Eu  0.99813108  0.43810932  0.00416070     2.39800
O41         O  0.46699919  0.47183226  0.03173005    -0.93800
O42         O  0.03000440  0.46694065  0.47183561    -0.92700
C43         C  0.00139024  0.41660334  0.42734804     1.01400
C44         C  0.99961695  0.42692358  0.08403483     1.00100
C45         C  0.07843196  0.99976731  0.42178182     0.99500
C46         C  0.42469053  0.99385853  0.41760903     1.01500
C47         C  0.41792981  0.00271420  0.07519432     1.00400
C48         C  0.07344427  0.00058289  0.08187746     0.99200
C49         C  0.07616863  0.42133370  0.00106514     0.99300
C50         C  0.41964529  0.42363380  0.00805588     1.01900
H51         H  0.04082848  0.45876880  0.04691365     0.29300
O52         O  0.02848292  0.47104427  0.03353283    -1.06000
H53         H  0.45635914  0.45369593  0.45767498     0.31300
O54         O  0.46877936  0.46725515  0.46980782    -1.08500
O55         O  0.00024329  0.20326658  0.16202794    -0.81100
O56         O  0.99899115  0.19708694  0.33704505    -0.82700
O57         O  0.04953106  0.16236364  0.24632018    -0.79700
O58         O  0.44981595  0.16310443  0.25078524    -0.78100
O59         O  0.41327008  0.20010338  0.25069750    -0.79800
O60         O  0.08658446  0.19866000  0.24944795    -0.80800
O61         O  0.99981296  0.16122520  0.29877987    -0.82100
O62         O  0.99967741  0.16467726  0.19735988    -0.82400
Eu63       Eu  0.99972118  0.18771460  0.24894845     2.39200
O64         O  0.46889172  0.21813778  0.28068820    -0.89900
O65         O  0.03024998  0.21980704  0.21891212    -0.93500
C66         C  0.00006120  0.17482381  0.16965158     1.01200
C67         C  0.99932358  0.16928049  0.32722203     1.01000
C68         C  0.07759728  0.17065644  0.24741089     1.00900
C69         C  0.42190587  0.17184256  0.25081382     0.98800
H70         H  0.04312648  0.20389194  0.29319805     0.28600
O71         O  0.03072390  0.21726612  0.28095684    -1.02300
H72         H  0.45668980  0.20771070  0.20591375     0.28600
O73         O  0.46932400  0.22013178  0.21899357    -1.04800
O74         O  0.00181785  0.29636208  0.34048612    -0.82100
O75         O  0.99840086  0.30400821  0.16657884    -0.81600
O76         O  0.08548582  0.24599867  0.30121830    -0.80000
O77         O  0.41343699  0.25160134  0.30015999    -0.83400
O78         O  0.41427305  0.24897298  0.20031217    -0.81200
O79         O  0.08612590  0.24744146  0.20057392    -0.79900
O80         O  0.05205803  0.33617219  0.25369795    -0.81400
O81         O  0.45232783  0.33834872  0.25235406    -0.83300
O82         O  0.08817969  0.29878436  0.25126833    -0.80100
O83         O  0.41501480  0.30215142  0.24952059    -0.82700
O84         O  0.04943721  0.24549031  0.33795493    -0.78500
O85         O  0.04992269  0.25393988  0.16447962    -0.78500
O86         O  0.45034681  0.25258964  0.16378287    -0.78100
O87         O  0.44957910  0.24864041  0.33668782    -0.81600
O88         O  0.00292676  0.33494776  0.30523782    -0.81100
O89         O  0.00202182  0.33925950  0.20503480    -0.79400
Eu90       Eu  0.99997010  0.24765331  0.31277176     2.39800
Eu91       Eu  0.99996319  0.25250179  0.18923742     2.39600
Eu92       Eu  0.06170741  0.24898496  0.25088175     2.38400
Eu93       Eu  0.43870984  0.25068288  0.25063388     2.39900
Eu94       Eu  0.00156452  0.31199985  0.25374771     2.39800
O95         O  0.46991548  0.28284194  0.22146095    -0.93800
O96         O  0.03172752  0.27936103  0.28346005    -0.92700
C97         C  0.00275031  0.32475594  0.33289979     1.01400
C98         C  0.00014749  0.33175633  0.17659247     1.00100
C99         C  0.07730080  0.24444073  0.32937062     0.99500
C100        C  0.42170748  0.25091449  0.32829830     1.01500
C101        C  0.42246029  0.25015315  0.17210847     1.00400
C102        C  0.07780555  0.25085073  0.17258674     0.99200
C103        C  0.07987933  0.32708767  0.25225888     0.99300
C104        C  0.42426281  0.33023095  0.25049141     1.01900
H105        H  0.04435077  0.29469174  0.20879991     0.29300
O106        O  0.03159088  0.28177111  0.22116540    -1.06000
H107        H  0.45740774  0.29310155  0.29606008     0.31300
O108        O  0.46981549  0.28038701  0.28301662    -1.08500
O109        O  0.33568349  0.49926262  0.19728007    -0.81100
O110        O  0.16217037  0.50132338  0.20061386    -0.82700
O111        O  0.24825452  0.45037628  0.16107649    -0.79700
O112        O  0.24944173  0.05009983  0.16165930    -0.78100
O113        O  0.24950387  0.08692344  0.19888591    -0.79800
O114        O  0.25059962  0.41333189  0.19778392    -0.80800
O115        O  0.19770171  0.50089212  0.16250468    -0.82100
O116        O  0.29820733  0.49958680  0.16100091    -0.82400
Eu117      Eu  0.24865054  0.50014055  0.18669022     2.39200
O118        O  0.21893920  0.03143176  0.21843039    -0.89900
O119        O  0.28028293  0.46897712  0.21684466    -0.93500
C120        C  0.32625097  0.49937848  0.16937688     1.01200
C121        C  0.16997036  0.50132312  0.17219656     1.01000
C122        C  0.24938065  0.42230177  0.16971773     1.00900
C123        C  0.24949114  0.07815565  0.17069723     0.98800
H124        H  0.20569448  0.45632833  0.20554722     0.28600
O125        O  0.21865372  0.46893342  0.21813429    -1.02300
H126        H  0.29303063  0.04342957  0.20451666     0.28600
O127        O  0.28045119  0.03080809  0.21736095    -1.04800
O128        O  0.16453191  0.50098611  0.30031775    -0.82100
O129        O  0.33707620  0.49840469  0.29774597    -0.81600
O130        O  0.20005971  0.41332043  0.24859767    -0.80000
O131        O  0.20069081  0.08773748  0.24983359    -0.83400
O132        O  0.30100149  0.08635654  0.24792111    -0.81200
O133        O  0.30069337  0.41280101  0.24901212    -0.79900
O134        O  0.25055706  0.44969939  0.33585840    -0.81400
O135        O  0.25381910  0.05035501  0.33640717    -0.83300
O136        O  0.24923371  0.41282922  0.29866301    -0.80100
O137        O  0.25301748  0.08717947  0.29933713    -0.82700
O138        O  0.16347679  0.45025217  0.25053951    -0.78500
O139        O  0.33713035  0.44992527  0.24771281    -0.78500
O140        O  0.33732682  0.04925965  0.24939067    -0.78100
O141        O  0.16430230  0.05059645  0.24857608    -0.81600
O142        O  0.20139644  0.49941057  0.33696477    -0.81100
O143        O  0.30146947  0.50026794  0.33560645    -0.79400
Eu144      Eu  0.18882654  0.50036852  0.24985101     2.39800
Eu145      Eu  0.31155924  0.49962630  0.24787921     2.39600
Eu146      Eu  0.25030251  0.43790963  0.24844082     2.38400
Eu147      Eu  0.25054875  0.06209549  0.24909383     2.39900
Eu148      Eu  0.25119948  0.50009892  0.31111501     2.39800
O149        O  0.28156165  0.03085773  0.27948092    -0.93800
O150        O  0.22019525  0.46927569  0.28000403    -0.92700
C151        C  0.17336380  0.50003754  0.32841071     1.01400
C152        C  0.32916643  0.49902436  0.32614115     1.00100
C153        C  0.17212674  0.42209401  0.24975066     0.99500
C154        C  0.17277994  0.07877224  0.24906935     1.01500
C155        C  0.32889249  0.07743621  0.24880810     1.00400
C156        C  0.32864272  0.42176662  0.24864121     0.99200
C157        C  0.24966968  0.42159552  0.32687498     0.99300
C158        C  0.25401863  0.07840844  0.32745473     1.01900
H159        H  0.29405704  0.45595379  0.29204145     0.29300
O160        O  0.28135190  0.46875495  0.27948702    -1.06000
H161        H  0.20763617  0.04428214  0.29376238     0.31300
O162        O  0.21997342  0.03143357  0.28078940    -1.08500
O163        O  0.20081667  0.16349068  0.50286904    -0.81100
O164        O  0.19865764  0.33553479  0.49626870    -0.82700
O165        O  0.16387823  0.24675582  0.04995157    -0.79700
O166        O  0.16392095  0.25266253  0.45042768    -0.78100
O167        O  0.19966641  0.24674527  0.41360515    -0.79800
O168        O  0.20021723  0.25138895  0.08620085    -0.80800
O169        O  0.16247833  0.29900602  0.50191505    -0.82100
O170        O  0.16404013  0.19935468  0.49775272    -0.82400
Eu171      Eu  0.18879059  0.24956817  0.49994453     2.39200
O172        O  0.21871062  0.28083752  0.46847285    -0.89900
O173        O  0.21973298  0.21882757  0.03063523    -0.93500
C174        C  0.17279572  0.17145425  0.50080308     1.01200
C175        C  0.17075406  0.32707018  0.49884168     1.01000
C176        C  0.17226381  0.24932603  0.07802793     1.00900
C177        C  0.17188851  0.24921316  0.42240298     0.98800
H178        H  0.20636727  0.29356958  0.04352938     0.28600
O179        O  0.21916755  0.28094377  0.03081665    -1.02300
H180        H  0.20693993  0.20566649  0.45586737     0.28600
O181        O  0.21943162  0.21866563  0.46850875    -1.04800
O182        O  0.29946801  0.33648285  0.50365569    -0.82100
O183        O  0.30105408  0.16521988  0.49486719    -0.81600
O184        O  0.25072274  0.30016964  0.08653970    -0.80000
O185        O  0.24887362  0.30051566  0.41234143    -0.83400
O186        O  0.25221858  0.19987945  0.41230366    -0.81200
O187        O  0.24870700  0.20017312  0.08704375    -0.79900
O188        O  0.33659349  0.25292256  0.04941271    -0.81400
O189        O  0.33558997  0.24805463  0.45002063    -0.83300
O190        O  0.30043608  0.24806001  0.08605164    -0.80100
O191        O  0.29970932  0.25232751  0.41306211    -0.82700
O192        O  0.24802499  0.33693380  0.04944157    -0.78500
O193        O  0.25099133  0.16320763  0.04994256    -0.78500
O194        O  0.25122514  0.16269872  0.44908612    -0.78100
O195        O  0.25061966  0.33761821  0.44930269    -0.81600
O196        O  0.33660257  0.30059965  0.49970441    -0.81100
O197        O  0.33723065  0.20183632  0.50059590    -0.79400
Eu198      Eu  0.24931238  0.31203171  0.49933876     2.39800
Eu199      Eu  0.25059439  0.18820277  0.49943825     2.39600
Eu200      Eu  0.25020964  0.24997771  0.06158953     2.38400
Eu201      Eu  0.24983237  0.25018131  0.43756702     2.39900
Eu202      Eu  0.31105900  0.25090543  0.49985187     2.39800
O203        O  0.28069788  0.21979049  0.46869526    -0.93800
O204        O  0.28018225  0.28162082  0.03072617    -0.92700
C205        C  0.32761471  0.32842968  0.50263075     1.01400
C206        C  0.32889532  0.17390386  0.49704108     1.00100
C207        C  0.24932721  0.32814412  0.07751403     0.99500
C208        C  0.24979692  0.32870925  0.42112973     1.01500
C209        C  0.25223660  0.17173738  0.42101338     1.00400
C210        C  0.24968304  0.17208275  0.07813299     0.99200
C211        C  0.32833508  0.25033235  0.07749536     0.99300
C212        C  0.32748142  0.25024623  0.42190765     1.01900
H213        H  0.29408095  0.20624580  0.04334556     0.29300
O214        O  0.28130061  0.21897042  0.03080697    -1.06000
H215        H  0.29322654  0.29448548  0.45589329     0.31300
O216        O  0.28056247  0.28161040  0.46841330    -1.08500
C217        C  0.27138461  0.12574647  0.14802018    -0.02800
C218        C  0.24961748  0.10210815  0.14699330     0.06900
C219        C  0.22768884  0.10173978  0.12349569    -0.02900
C220        C  0.22712884  0.12520983  0.10163011    -0.02900
C221        C  0.24944136  0.14827800  0.10205038     0.07000
C222        C  0.27154204  0.14849004  0.12537770    -0.03100
Br223      Br  0.30294086  0.17922455  0.12584430    -0.01700
Br224      Br  0.30208449  0.12645360  0.17958077    -0.01700
Br225      Br  0.19418437  0.12704670  0.07268800    -0.01700
Br226      Br  0.19739628  0.06988348  0.12175976    -0.01700
C227        C  0.22693359  0.37516680  0.14655661    -0.02800
C228        C  0.24893221  0.39857565  0.14568266     0.06900
C229        C  0.27026926  0.39924097  0.12161162    -0.02900
C230        C  0.27137190  0.37521613  0.10035787    -0.02900
C231        C  0.24924366  0.35209928  0.10107544     0.07000
C232        C  0.22647520  0.35261173  0.12362989    -0.03100
Br233      Br  0.19327999  0.32397473  0.12165913    -0.01700
Br234      Br  0.19593802  0.37507201  0.17775757    -0.01700
Br235      Br  0.30425667  0.37322825  0.07126795    -0.01700
Br236      Br  0.29781286  0.43304539  0.11684880    -0.01700
C237        C  0.27138635  0.37418353  0.35034222    -0.02800
C238        C  0.24942540  0.39762449  0.35074945     0.06900
C239        C  0.22747913  0.39824433  0.37425806    -0.06900
C240        C  0.22763899  0.37578058  0.39726152    -0.02900
C241        C  0.24985077  0.35257341  0.39709594     0.07000
C242        C  0.27185816  0.35204210  0.37364111    -0.03100
Br243      Br  0.30399258  0.32214373  0.37432285    -0.01700
Br244      Br  0.30170500  0.37282483  0.31846637    -0.01700
Br245      Br  0.19633054  0.37607144  0.42813867    -0.01700
Br246      Br  0.19582870  0.42869711  0.37399310    -0.01700
C247        C  0.22843123  0.12122020  0.35477097    -0.02800
C248        C  0.25414989  0.10245655  0.35118806     0.06900
C249        C  0.27967908  0.10699489  0.37010461    -0.02900
C250        C  0.27953277  0.13059012  0.39212387    -0.02900
C251        C  0.25310696  0.14807646  0.39688863     0.07000
C252        C  0.22753419  0.14324172  0.37822927    -0.03100
Br253      Br  0.19090046  0.16624170  0.38537292    -0.01700
Br254      Br  0.19414147  0.11653237  0.32771973    -0.01700
Br255      Br  0.31607917  0.14046944  0.41426564    -0.01700
Br256      Br  0.31515640  0.08163520  0.36524727    -0.01700
C257        C  0.35034074  0.12652192  0.26952348    -0.02800
C258        C  0.35290944  0.10129565  0.24947037     0.06900
C259        C  0.37876398  0.09887154  0.23050757    -0.02900
C260        C  0.40096555  0.12202841  0.23069765    -0.02900
C261        C  0.39825111  0.14746493  0.25055494     0.07000
C262        C  0.37317581  0.14897286  0.27053933    -0.03100
Br263      Br  0.37126210  0.17994875  0.30170240    -0.01700
Br264      Br  0.31641468  0.12989914  0.29722388    -0.01700
Br265      Br  0.43465099  0.11872424  0.20278730    -0.01700
Br266      Br  0.38383493  0.06437993  0.20324331    -0.01700
C267        C  0.40083899  0.37924138  0.27046750    -0.02800
C268        C  0.40086597  0.35485176  0.24920257     0.06900
C269        C  0.37819343  0.35404206  0.22646686    -0.02900
C270        C  0.35380671  0.37482965  0.22714660    -0.02900
C271        C  0.35297423  0.39826623  0.24933216     0.07000
C272        C  0.37676803  0.40044334  0.27088849    -0.03100
Br273      Br  0.37564317  0.43127671  0.30254108    -0.01700
Br274      Br  0.43424371  0.38497095  0.29831115    -0.01700
Br275      Br  0.32218488  0.37160589  0.19676766    -0.01700
Br276      Br  0.38341775  0.32806883  0.19130790    -0.01700
C277        C  0.09867817  0.12024409  0.26549457    -0.02800
C278        C  0.10126808  0.14635472  0.24669930     0.06900
C279        C  0.12695975  0.14927355  0.22755551    -0.02900
C280        C  0.14993930  0.12690090  0.22781694    -0.02900
C281        C  0.14850155  0.10231009  0.24856062     0.07000
C282        C  0.12276938  0.09926133  0.26755647    -0.03100
Br283      Br  0.12079751  0.06720550  0.29782696    -0.01700
Br284      Br  0.06200753  0.11201167  0.28807453    -0.01700
Br285      Br  0.18193339  0.12867831  0.19768334    -0.01700
Br286      Br  0.12980617  0.18245222  0.19879380    -0.01700
C287        C  0.10166560  0.37537507  0.23018712    -0.02800
C288        C  0.10383977  0.35106268  0.25124770     0.06900
C289        C  0.12860971  0.35025311  0.27163870    -0.02900
C290        C  0.15085798  0.37334150  0.27104844    -0.02900
C291        C  0.14838334  0.39795473  0.25038817     0.07000
C292        C  0.12335826  0.39905010  0.23023535    -0.03100
Br293      Br  0.11885597  0.43241351  0.20181481    -0.01700
Br294      Br  0.07014230  0.37535539  0.19957739    -0.01700
Br295      Br  0.18365861  0.37198453  0.30028475    -0.01700
Br296      Br  0.13148002  0.31852734  0.30183570    -0.01700
C297        C  0.36734517  0.25480095  0.15516572    -0.02800
C298        C  0.39825784  0.24877981  0.14782383     0.06900
C299        C  0.40542559  0.24169645  0.11677268    -0.02900
C300        C  0.38214790  0.23919646  0.09477040    -0.02900
C301        C  0.35248769  0.24971253  0.10151197     0.07000
C302        C  0.34596887  0.25908915  0.13175368    -0.03100
Br303      Br  0.30894291  0.28075631  0.14172239    -0.01700
Br304      Br  0.35176229  0.25555743  0.19668367    -0.01700
Br305      Br  0.39135129  0.21902198  0.05631446    -0.01700
Br306      Br  0.44658282  0.23474845  0.10260394    -0.01700
C307        C  0.15563107  0.24896042  0.13396450    -0.02800
C308        C  0.14819246  0.25037885  0.10237389     0.06900
C309        C  0.11716754  0.25403520  0.09452069    -0.02900
C310        C  0.09445147  0.24983401  0.11669038    -0.02900
C311        C  0.10190498  0.25132796  0.14826719     0.07000
C312        C  0.13304138  0.25391561  0.15616996    -0.03100
Br313      Br  0.14623543  0.26827774  0.19598476    -0.01700
Br314      Br  0.19607447  0.23983838  0.14872286    -0.01700
Br315      Br  0.05392508  0.24107784  0.10188981    -0.01700
Br316      Br  0.10448398  0.26997955  0.05527566    -0.01700
C317        C  0.13251928  0.24629899  0.34519099    -0.02800
C318        C  0.10159754  0.24212366  0.35326681     0.06900
C319        C  0.09453054  0.23687946  0.38459145    -0.02900
C320        C  0.11763667  0.23761555  0.40686669    -0.02900
C321        C  0.14744411  0.24712283  0.39890232     0.07000
C322        C  0.15409767  0.25271047  0.36779399    -0.03100
Br323      Br  0.19156158  0.27195103  0.35489438    -0.01700
Br324      Br  0.14791933  0.23923904  0.30417822    -0.01700
Br325      Br  0.10748062  0.22386237  0.44781687    -0.01700
Br326      Br  0.05397249  0.22617064  0.39824648    -0.01700
C327        C  0.40493496  0.25784889  0.38377999    -0.02800
C328        C  0.39760275  0.25264319  0.35245219     0.06900
C329        C  0.36650565  0.24886591  0.34469960    -0.02900
C330        C  0.34518462  0.24304945  0.36765897    -0.02900
C331        C  0.35177062  0.25086639  0.39827411     0.07000
C332        C  0.38162011  0.26040810  0.40563750    -0.03100
Br333      Br  0.39123424  0.27947693  0.44457057    -0.01700
Br334      Br  0.44617591  0.26275499  0.39848960    -0.01700
Br335      Br  0.30850965  0.22150924  0.35625694    -0.01700
Br336      Br  0.35034743  0.25584032  0.30408378    -0.01700
C337        C  0.37843033  0.34799583  0.02184605    -0.02800
C338        C  0.35106715  0.35292691  0.00549382     0.06900
C339        C  0.34497105  0.38254882  0.49430727    -0.02900
C340        C  0.36505306  0.40668735  0.50039148    -0.02900
C341        C  0.39462677  0.40059503  0.01149943     0.07000
C342        C  0.40016342  0.37157269  0.02451919    -0.03100
Br343      Br  0.43507733  0.36529030  0.05056234    -0.01700
Br344      Br  0.38640418  0.30963502  0.04204085    -0.01700
Br345      Br  0.34863364  0.44764840  0.49897961    -0.01700
Br346      Br  0.31056346  0.39056170  0.46806940    -0.01700
C347        C  0.38115388  0.15568537  0.48158529    -0.02800
C348        C  0.35274824  0.14993801  0.99545503     0.06900
C349        C  0.34674174  0.12057443  0.00719162    -0.02900
C350        C  0.36764139  0.09672237  0.00294497    -0.02900
C351        C  0.39732738  0.10293599  0.99171163     0.07000
C352        C  0.40369238  0.13283817  0.48088926    -0.03100
Br353      Br  0.44263583  0.14330205  0.46331340    -0.01700
Br354      Br  0.38959601  0.19446316  0.46219383    -0.01700
Br355      Br  0.35339419  0.05584904  0.01196313    -0.01700
Br356      Br  0.31110508  0.11302831  0.03214474    -0.01700
C357        C  0.09377256  0.36683082  0.99032127    -0.02800
C358        C  0.10057317  0.39731866  0.99937776     0.06900
C359        C  0.13134567  0.40460808  0.50618800    -0.02900
C360        C  0.15322791  0.38133107  0.50863109    -0.02900
C361        C  0.14671769  0.35131408  0.99851920     0.07000
C362        C  0.11712571  0.34493298  0.98762339    -0.03100
Br363      Br  0.10849635  0.30740352  0.96585773    -0.01700
Br364      Br  0.05298444  0.35394975  0.97981243    -0.01700
Br365      Br  0.19153468  0.39135343  0.52802204    -0.01700
Br366      Br  0.14588187  0.44623322  0.51097429    -0.01700
C367        C  0.13447447  0.09301896  0.99898364    -0.02800
C368        C  0.10335563  0.10060993  0.00363530     0.06900
C369        C  0.09622699  0.13150383  0.51066426    -0.02900
C370        C  0.11938165  0.15361162  0.51249930    -0.02900
C371        C  0.14912411  0.14692221  0.00223280     0.07000
C372        C  0.15618971  0.11622719  0.99475949    -0.03100
Br373      Br  0.19502476  0.10481514  0.97723403    -0.01700
Br374      Br  0.14982268  0.05154102  0.00151418    -0.01700
Br375      Br  0.11015420  0.19184599  0.53261052    -0.01700
Br376      Br  0.05531237  0.14479551  0.52014675    -0.01700
C377        C  0.37557752  0.47451303  0.39534082    -0.02800
C378        C  0.40183922  0.99263543  0.39236028     0.06900
C379        C  0.40538663  0.01034215  0.36555792    -0.02900
C380        C  0.38093217  0.01404523  0.34518396    -0.02900
C381        C  0.35379443  0.99737378  0.34933126     0.07000
C382        C  0.35156917  0.47699058  0.37424041    -0.03100
Br383      Br  0.31646619  0.45096619  0.37901226    -0.01700
Br384      Br  0.37468329  0.44248531  0.42522860    -0.01700
Br385      Br  0.38427097  0.04397805  0.31292745    -0.01700
Br386      Br  0.44411276  0.02772300  0.35456275    -0.01700
C387        C  0.12701101  0.02104710  0.39908706    -0.02800
C388        C  0.10227499  0.00058230  0.39715054     0.06900
C389        C  0.10005187  0.48170723  0.37078397    -0.02900
C390        C  0.12393467  0.48046309  0.34934068    -0.02900
C391        C  0.14937639  0.99981557  0.35239013     0.07000
C392        C  0.15059584  0.02037792  0.37725416    -0.03100
Br393      Br  0.18366027  0.04917329  0.38064431    -0.01700
Br394      Br  0.12611909  0.05387675  0.42815365    -0.01700
Br395      Br  0.12220693  0.45072496  0.31656109    -0.01700
Br396      Br  0.06360319  0.45905974  0.36169494    -0.01700
C397        C  0.11830178  0.47592546  0.10710871    -0.02800
C398        C  0.09640080  0.99932457  0.10687171     0.06900
C399        C  0.09649860  0.02092242  0.13094922    -0.02900
C400        C  0.12161774  0.02300487  0.15075544    -0.02900
C401        C  0.14502669  0.00103609  0.14930513     0.07000
C402        C  0.14248636  0.47671661  0.12819590    -0.03100
Br403      Br  0.17056052  0.44303844  0.12983970    -0.01700
Br404      Br  0.11158373  0.43987856  0.08269300    -0.01700
Br405      Br  0.12422789  0.05689919  0.17895197    -0.01700
Br406      Br  0.06087340  0.04473820  0.14004618    -0.01700
C407        C  0.37589004  0.02761071  0.10495639    -0.02800
C408        C  0.39340558  0.00152920  0.09831833     0.06900
C409        C  0.38773977  0.47424651  0.11434579    -0.02900
C410        C  0.36727508  0.47407950  0.13906166    -0.02900
C411        C  0.34931333  0.99996727  0.14505080     0.07000
C412        C  0.35303800  0.02642435  0.12732574    -0.03100
Br413      Br  0.32737404  0.06137044  0.13433599    -0.01700
Br414      Br  0.38346181  0.06525062  0.08418679    -0.01700
Br415      Br  0.36387783  0.43853737  0.16471041    -0.01700
Br416      Br  0.40526085  0.43649229  0.10018693    -0.01700
C417        C  0.02652516  0.11031654  0.38410228    -0.02800
C418        C  0.99896416  0.09746547  0.39390228     0.06900
C419        C  0.47140435  0.10856566  0.38215839    -0.02900
C420        C  0.47162441  0.13134543  0.35950298    -0.02900
C421        C  0.99918801  0.14476592  0.35030892     0.07000
C422        C  0.02660011  0.13479619  0.36337819    -0.03100
Br423      Br  0.06409442  0.15544414  0.35399976    -0.01700
Br424      Br  0.06417098  0.09429044  0.39915457    -0.01700
Br425      Br  0.43418252  0.14451048  0.34134252    -0.01700
Br426      Br  0.43342751  0.09360829  0.39811263    -0.01700
C427        C  0.03014203  0.36046168  0.36804609    -0.02800
C428        C  0.00277871  0.34730664  0.35790758     0.06900
C429        C  0.47530389  0.35504698  0.37234125    -0.02900
C430        C  0.47493367  0.37728344  0.39559680    -0.02900
C431        C  0.00210145  0.39148621  0.40481743     0.07000
C432        C  0.02985605  0.38203827  0.39198384    -0.03100
Br433      Br  0.06746817  0.39694353  0.40883754    -0.01700
Br434      Br  0.06796257  0.34846054  0.34954939    -0.01700
Br435      Br  0.43723842  0.38798830  0.41506004    -0.01700
Br436      Br  0.43812799  0.33521698  0.36014919    -0.01700
C437        C  0.98375026  0.38373474  0.15831000    -0.02800
C438        C  0.00085408  0.35683373  0.15379974     0.06900
C439        C  0.52020165  0.35474305  0.12822822    -0.02900
C440        C  0.51996714  0.37761517  0.10567374    -0.02900
C441        C  0.00176188  0.40405493  0.10934446     0.07000
C442        C  0.98560765  0.40791226  0.13716245    -0.03100
Br443      Br  0.96706711  0.44639463  0.14805954    -0.01700
Br444      Br  0.95636286  0.38730260  0.19266830    -0.01700
Br445      Br  0.54721666  0.37345933  0.07129187    -0.01700
Br446      Br  0.54941070  0.32200443  0.12543864    -0.01700
C447        C  0.02956963  0.11858115  0.11063523    -0.02800
C448        C  0.00249679  0.10949493  0.09611751     0.06900
C449        C  0.47526038  0.12443529  0.10362352    -0.02900
C450        C  0.47423925  0.14545767  0.12798505    -0.02900
C451        C  0.00077604  0.15222218  0.14455905     0.07000
C452        C  0.02853093  0.13903593  0.13558210    -0.03100
Br453      Br  0.06507363  0.14917267  0.15746195    -0.01700
Br454      Br  0.06813013  0.10645929  0.09381752    -0.01700
Br455      Br  0.43630043  0.16444146  0.13883826    -0.01700
Br456      Br  0.44002623  0.11809344  0.07862113    -0.01700
O457        O  0.00028874  0.05656150  0.58396006    -0.81100
O458        O  0.99910338  0.04591664  0.91073664    -0.82700
O459        O  0.05112091  0.08531795  0.49748065    -0.79700
O460        O  0.44953152  0.08737110  0.49565390    -0.78100
O461        O  0.41333186  0.05073943  0.49154134    -0.79800
O462        O  0.08659261  0.04857459  0.50402972    -0.80800
O463        O  0.99960963  0.08476741  0.94601361    -0.82100
O464        O  0.00210207  0.09137266  0.54501993    -0.82400
Eu465      Eu  0.99979116  0.06220340  0.49708878     2.39200
O466        O  0.46983775  0.02979112  0.96640615    -0.89900
O467        O  0.02909573  0.03224911  0.53018122    -0.93500
C468        C  0.00207319  0.08416471  0.57355988     1.01200
C469        C  0.99905036  0.07445685  0.91840063     1.01000
C470        C  0.07882065  0.07670576  0.50165894     1.00900
C471        C  0.42161881  0.07887993  0.49273123     0.98800
H472        H  0.04388146  0.04164468  0.95527841     0.28600
O473        O  0.03096523  0.02940777  0.96818252    -1.02300
H474        H  0.45435882  0.04704256  0.54051968     0.28600
O475        O  0.46723679  0.03354767  0.52879944    -1.04800
O476        O  0.00310678  0.44412650  0.91692328    -0.82100
O477        O  0.99919647  0.45557064  0.59096932    -0.81600
O478        O  0.08677699  0.00022888  0.95030999    -0.80000
O479        O  0.41490778  0.99636574  0.94549825    -0.83400
O480        O  0.41014585  0.00321984  0.54672575    -0.81200
O481        O  0.08305751  0.99932473  0.55381466    -0.79900
O482        O  0.04831621  0.41298586  0.50466174    -0.81400
O483        O  0.44740526  0.41413578  0.50779161    -0.83300
O484        O  0.08430098  0.44937669  0.49879751    -0.80100
O485        O  0.41214544  0.45174064  0.50436249    -0.82700
O486        O  0.05058357  0.99860506  0.91307068    -0.78500
O487        O  0.04535622  0.00245437  0.58967550    -0.78500
O488        O  0.44555342  0.00270243  0.58510590    -0.78100
O489        O  0.45291465  0.99293129  0.91022008    -0.81600
O490        O  0.99882267  0.40938115  0.95581520    -0.81100
O491        O  0.99855283  0.41655552  0.55632005    -0.79400
Eu492      Eu  0.00087463  0.99651542  0.93806408     2.39800
Eu493      Eu  0.99699525  0.00400211  0.56237008     2.39600
Eu494      Eu  0.06058983  0.99960120  0.50135380     2.38400
Eu495      Eu  0.43757559  0.00086354  0.49758387     2.39900
Eu496      Eu  0.99812805  0.43810228  0.50414640     2.39800
O497        O  0.46699796  0.47182307  0.53171835    -0.93800
O498        O  0.03000848  0.46694252  0.97184650    -0.92700
C499        C  0.00137645  0.41659992  0.92736162     1.01400
C500        C  0.99960736  0.42690745  0.58402016     1.00100
C501        C  0.07844116  0.99976337  0.92179920     0.99500
C502        C  0.42468816  0.99387186  0.91762018     1.01500
C503        C  0.41792874  0.00269170  0.57518756     1.00400
C504        C  0.07344773  0.00055428  0.58186785     0.99200
C505        C  0.07615799  0.42132105  0.50103491     0.99300
C506        C  0.41964558  0.42362611  0.50803879     1.01900
H507        H  0.04082704  0.45875280  0.54690019     0.29300
O508        O  0.02848215  0.47103153  0.53352172    -1.06000
H509        H  0.45635811  0.45369819  0.95769032     0.31300
O510        O  0.46877977  0.46725784  0.96982119    -1.08500
O511        O  0.00025487  0.20324560  0.66203793    -0.81100
O512        O  0.99899661  0.19708136  0.83704610    -0.82700
O513        O  0.04952466  0.16235672  0.74631150    -0.79700
O514        O  0.44979345  0.16311829  0.75077890    -0.78100
O515        O  0.41325320  0.20012282  0.75069607    -0.79800
O516        O  0.08658450  0.19864734  0.74943043    -0.80800
O517        O  0.99980136  0.16121972  0.79878026    -0.82100
O518        O  0.99967247  0.16465869  0.69737159    -0.82400
Eu519      Eu  0.99971423  0.18771032  0.74895237     2.39200
O520        O  0.46889367  0.21814201  0.78069352    -0.89900
O521        O  0.03025270  0.21979594  0.71891782    -0.93500
C522        C  0.00006563  0.17480269  0.66966275     1.01200
C523        C  0.99931826  0.16927480  0.82722219     1.01000
C524        C  0.07759291  0.17064526  0.74739360     1.00900
C525        C  0.42188358  0.17186010  0.75080703     0.98800
H526        H  0.04312899  0.20388258  0.79319776     0.28600
O527        O  0.03072724  0.21725859  0.78095764    -1.02300
H528        H  0.45668745  0.20771176  0.70591689     0.28600
O529        O  0.46932368  0.22013127  0.71899625    -1.04800
O530        O  0.00182098  0.29635965  0.84049271    -0.82100
O531        O  0.99841123  0.30399235  0.66657275    -0.81600
O532        O  0.08550053  0.24597681  0.80121444    -0.80000
O533        O  0.41344809  0.25163251  0.80016600    -0.83400
O534        O  0.41428956  0.24899878  0.70030864    -0.81200
O535        O  0.08613056  0.24742964  0.70057243    -0.79900
O536        O  0.05207207  0.33616686  0.75369443    -0.81400
O537        O  0.45234182  0.33835814  0.75235635    -0.83300
O538        O  0.08819228  0.29877633  0.75127196    -0.80100
O539        O  0.41502819  0.30216205  0.74952667    -0.82700
O540        O  0.04945611  0.24549425  0.83795606    -0.78500
O541        O  0.04992937  0.25392552  0.66447603    -0.78500
O542        O  0.45036297  0.25257145  0.66377628    -0.78100
O543        O  0.44958941  0.24864344  0.83669371    -0.81600
O544        O  0.00292519  0.33494531  0.80524375    -0.81100
O545        O  0.00202981  0.33924900  0.70502449    -0.79400
Eu546      Eu  0.99998193  0.24765113  0.81277608     2.39800
Eu547      Eu  0.99997307  0.25248981  0.68923834     2.39600
Eu548      Eu  0.06171512  0.24897546  0.75088193     2.38400
Eu549      Eu  0.43871691  0.25069152  0.75063667     2.39900
Eu550      Eu  0.00157706  0.31199962  0.75374692     2.39800
O551        O  0.46992929  0.28283999  0.72145971    -0.93800
O552        O  0.03173912  0.27935715  0.78345989    -0.92700
C553        C  0.00274659  0.32475384  0.83290681     1.01400
C554        C  0.00015519  0.33174186  0.67658259     1.00100
C555        C  0.07731929  0.24443331  0.82936852     0.99500
C556        C  0.42171877  0.25093756  0.82830431     1.01500
C557        C  0.42247552  0.25015743  0.67210358     1.00400
C558        C  0.07781162  0.25083741  0.67258473     0.99200
C559        C  0.07989282  0.32708069  0.75225857     0.99300
C560        C  0.42427586  0.33024149  0.75049584     1.01900
H561        H  0.04436180  0.29468152  0.70879867     0.29300
O562        O  0.03160066  0.28176312  0.72116523    -1.06000
H563        H  0.45742517  0.29310403  0.79606092     0.31300
O564        O  0.46983095  0.28038744  0.78301771    -1.08500
O565        O  0.33568213  0.49924891  0.69727407    -0.81100
O566        O  0.16216823  0.50130599  0.70061608    -0.82700
O567        O  0.24825853  0.45037516  0.66107981    -0.79700
O568        O  0.24944295  0.05008331  0.66165236    -0.78100
O569        O  0.24949527  0.08690802  0.69887773    -0.79800
O570        O  0.25061220  0.41333344  0.69778856    -0.80800
O571        O  0.19769944  0.50087496  0.66250695    -0.82100
O572        O  0.29820317  0.49957621  0.66099822    -0.82400
Eu573      Eu  0.24864876  0.50013357  0.68669362     2.39200
O574        O  0.21893531  0.03142531  0.71843141    -0.89900
O575        O  0.28028261  0.46897100  0.71684656    -0.93500
C576        C  0.32624751  0.49936392  0.66937137     1.01200
C577        C  0.16996780  0.50130277  0.67219835     1.01000
C578        C  0.24939008  0.42230209  0.66972165     1.00900
C579        C  0.24948743  0.07813877  0.67068912     0.98800
H580        H  0.20569610  0.45632051  0.70555323     0.28600
O581        O  0.21865390  0.46892736  0.71814000    -1.02300
H582        H  0.29302715  0.04342451  0.70451440     0.28600
O583        O  0.28044853  0.03080398  0.71736041    -1.04800
O584        O  0.16452827  0.50097114  0.80032241    -0.82100
O585        O  0.33708136  0.49839734  0.79773831    -0.81600
O586        O  0.20006410  0.41331782  0.74859852    -0.80000
O587        O  0.20068792  0.08773098  0.74983486    -0.83400
O588        O  0.30099541  0.08635084  0.74791408    -0.81200
O589        O  0.30068995  0.41279574  0.74902768    -0.79900
O590        O  0.25056704  0.44971446  0.83587024    -0.81400
O591        O  0.25381587  0.05036156  0.83640987    -0.83300
O592        O  0.24923712  0.41283989  0.79867908    -0.80100
O593        O  0.25300881  0.08718133  0.79933587    -0.82700
O594        O  0.16347905  0.45024756  0.75054286    -0.78500
O595        O  0.33712625  0.44991968  0.74771221    -0.78500
O596        O  0.33732501  0.04925729  0.74938069    -0.78100
O597        O  0.16430072  0.05058891  0.74857445    -0.81600
O598        O  0.20139695  0.49940771  0.83696604    -0.81100
O599        O  0.30147803  0.50027378  0.83560117    -0.79400
Eu600      Eu  0.18882531  0.50036246  0.74985502     2.39800
Eu601      Eu  0.31155936  0.49962312  0.74787561     2.39600
Eu602      Eu  0.25030414  0.43790831  0.74844873     2.38400
Eu603      Eu  0.25054458  0.06209097  0.74909279     2.39900
Eu604      Eu  0.25120223  0.50010497  0.81111744     2.39800
O605        O  0.28156359  0.03085822  0.77947818    -0.93800
O606        O  0.22019802  0.46927622  0.78001079    -0.92700
C607        C  0.17336294  0.50002717  0.82841491     1.01400
C608        C  0.32917445  0.49902297  0.82613389     1.00100
C609        C  0.17213117  0.42209068  0.74975147     0.99500
C610        C  0.17277776  0.07876475  0.74906779     1.01500
C611        C  0.32888705  0.07743279  0.74879857     1.00400
C612        C  0.32863877  0.42176128  0.74865004     0.99200
C613        C  0.24967776  0.42161035  0.82689012     0.99300
C614        C  0.25401090  0.07841427  0.82745509     1.01900
H615        H  0.29405825  0.45595822  0.79204465     0.29300
O616        O  0.28135261  0.46875830  0.77948968    -1.06000
H617        H  0.20763232  0.04428029  0.79376389     0.31300
O618        O  0.21997033  0.03143198  0.78079138    -1.08500
O619        O  0.20082236  0.16349248  0.00285214    -0.81100
O620        O  0.19867272  0.33554232  0.99628387    -0.82700
O621        O  0.16388632  0.24675116  0.54995723    -0.79700
O622        O  0.16393529  0.25269125  0.95042807    -0.78100
O623        O  0.19968113  0.24675742  0.91360876    -0.79800
O624        O  0.20022409  0.25138622  0.58620748    -0.80800
O625        O  0.16249563  0.29901531  0.00194454    -0.82100
O626        O  0.16405043  0.19936118  0.99773736    -0.82400
Eu627      Eu  0.18879847  0.24957604  0.99994647     2.39200
O628        O  0.21872200  0.28084482  0.96847664    -0.89900
O629        O  0.21973100  0.21882688  0.53063571    -0.93500
C630        C  0.17280249  0.17145918  0.00078443     1.01200
C631        C  0.17076987  0.32707910  0.99886869     1.01000
C632        C  0.17227194  0.24932154  0.57803347     1.00900
C633        C  0.17190391  0.24923450  0.92240462     0.98800
H634        H  0.20635585  0.29356409  0.54352563     0.28600
O635        O  0.21915827  0.28093857  0.53081478    -1.02300
H636        H  0.20694799  0.20568171  0.95586590     0.28600
O637        O  0.21944043  0.21867841  0.96850898    -1.04800
O638        O  0.29948857  0.33647479  0.00365871    -0.82100
O639        O  0.30106094  0.16523590  0.99484190    -0.81600
O640        O  0.25071103  0.30017043  0.58654079    -0.80000
O641        O  0.24888466  0.30052811  0.91234836    -0.83400
O642        O  0.25221319  0.19989205  0.91230076    -0.81200
O643        O  0.24870374  0.20017121  0.58704668    -0.79900
O644        O  0.33659140  0.25291949  0.54941364    -0.81400
O645        O  0.33560451  0.24805017  0.95003029    -0.83300
O646        O  0.30043509  0.24806439  0.58605368    -0.80100
O647        O  0.29972684  0.25233530  0.91307160    -0.82700
O648        O  0.24800066  0.33693151  0.54944087    -0.78500
O649        O  0.25098312  0.16320405  0.54994740    -0.78500
O650        O  0.25121566  0.16270904  0.94908102    -0.78100
O651        O  0.25062910  0.33762837  0.94931175    -0.81600
O652        O  0.33662032  0.30059067  0.99969827    -0.81100
O653        O  0.33724470  0.20184367  0.00057913    -0.79400
Eu654      Eu  0.24932648  0.31203488  0.99934268     2.39800
Eu655      Eu  0.25059828  0.18820846  0.99943389     2.39600
Eu656      Eu  0.25020810  0.24997789  0.56158977     2.38400
Eu657      Eu  0.24984468  0.25019166  0.93756910     2.39900
Eu658      Eu  0.31106522  0.25090556  0.99985281     2.39800
O659        O  0.28070563  0.21979372  0.96869301    -0.93800
O660        O  0.28017462  0.28162271  0.53072249    -0.92700
C661        C  0.32763487  0.32842044  0.00262807     1.01400
C662        C  0.32890388  0.17391462  0.99701387     1.00100
C663        C  0.24930763  0.32814432  0.57751452     0.99500
C664        C  0.24980658  0.32872110  0.92113843     1.01500
C665        C  0.25222479  0.17174955  0.92100896     1.00400
C666        C  0.24967605  0.17207977  0.57813754     0.99200
C667        C  0.32833446  0.25033225  0.57749767     0.99300
C668        C  0.32749844  0.25024809  0.92191809     1.01900
H669        H  0.29407695  0.20624688  0.54334852     0.29300
O670        O  0.28129681  0.21896967  0.53080792    -1.06000
H671        H  0.29324153  0.29449259  0.95589564     0.31300
O672        O  0.28057646  0.28161749  0.96841465    -1.08500
C673        C  0.27137967  0.12573009  0.64801743    -0.02800
C674        C  0.24961573  0.10208975  0.64698448     0.06900
C675        C  0.22769107  0.10172046  0.62348322    -0.02900
C676        C  0.22712767  0.12519656  0.60162394    -0.02900
C677        C  0.24943238  0.14827307  0.60205471     0.07000
C678        C  0.27152986  0.14848413  0.62538555    -0.03100
Br679      Br  0.30291262  0.17923434  0.62587580    -0.01700
Br680      Br  0.30208937  0.12642117  0.67956896    -0.01700
Br681      Br  0.19418669  0.12702990  0.57267783    -0.01700
Br682      Br  0.19741216  0.06985123  0.62173006    -0.01700
C683        C  0.22694524  0.37516091  0.64657616    -0.02800
C684        C  0.24893523  0.39857680  0.64568622     0.06900
C685        C  0.27024818  0.39925480  0.62159359    -0.02900
C686        C  0.27134693  0.37522774  0.60034236    -0.02900
C687        C  0.24922848  0.35210161  0.60107616     0.07000
C688        C  0.22647698  0.35260621  0.62364904    -0.03100
Br689      Br  0.19328881  0.32396047  0.62170560    -0.01700
Br690      Br  0.19596594  0.37506372  0.67779440    -0.01700
Br691      Br  0.30421790  0.37324878  0.57123659    -0.01700
Br692      Br  0.29775385  0.43308468  0.61678649    -0.01700
C693        C  0.27140231  0.37420681  0.85036105    -0.02800
C694        C  0.24943823  0.39764400  0.85076781     0.06900
C695        C  0.22749293  0.39826352  0.87427713    -0.06900
C696        C  0.22764984  0.37579524  0.89727582    -0.02900
C697        C  0.24986034  0.35258672  0.89710672     0.07000
C698        C  0.27186861  0.35205778  0.87365244    -0.03100
Br699      Br  0.30399009  0.32214487  0.87431757    -0.01700
Br700      Br  0.30173767  0.37287115  0.81850051    -0.01700
Br701      Br  0.19633361  0.37607672  0.92814511    -0.01700
Br702      Br  0.19585245  0.42872699  0.87402425    -0.01700
C703        C  0.22842717  0.12124132  0.85475626    -0.02800
C704        C  0.25413986  0.10246551  0.85118716     0.06900
C705        C  0.27966108  0.10699426  0.87011797    -0.02900
C706        C  0.27951479  0.13059397  0.89213200    -0.02900
C707        C  0.25309368  0.14808948  0.89688426     0.07000
C708        C  0.22752673  0.14326259  0.87821519    -0.03100
Br709      Br  0.19089590  0.16627062  0.88534904    -0.01700
Br710      Br  0.19414932  0.11657083  0.82768705    -0.01700
Br711      Br  0.31605694  0.14047021  0.91428281    -0.01700
Br712      Br  0.31512933  0.08161629  0.86529001    -0.01700
C713        C  0.35032718  0.12651625  0.76951965    -0.02800
C714        C  0.35289883  0.10129616  0.74946060     0.06900
C715        C  0.37874676  0.09888569  0.73048865    -0.02900
C716        C  0.40094177  0.12204928  0.73067854    -0.02900
C717        C  0.39822468  0.14748322  0.75053977     0.07000
C718        C  0.37314888  0.14898193  0.77052563    -0.03100
Br719      Br  0.37121265  0.17996726  0.80167552    -0.01700
Br720      Br  0.31642091  0.12985432  0.79724992    -0.01700
Br721      Br  0.43462183  0.11875735  0.70276173    -0.01700
Br722      Br  0.38381837  0.06439984  0.70321766    -0.01700
C723        C  0.40085218  0.37926027  0.77046063    -0.02800
C724        C  0.40087510  0.35486048  0.74920669     0.06900
C725        C  0.37818492  0.35403047  0.72648858    -0.02900
C726        C  0.35379352  0.37481217  0.72717244    -0.02900
C727        C  0.35297021  0.39826158  0.74934416     0.07000
C728        C  0.37677280  0.40045244  0.77088852    -0.03100
Br729      Br  0.37564367  0.43128669  0.80254035    -0.01700
Br730      Br  0.43427199  0.38502072  0.79827806    -0.01700
Br731      Br  0.32214797  0.37155745  0.69682137    -0.01700
Br732      Br  0.38338269  0.32803153  0.69134494    -0.01700
C733        C  0.09866936  0.12022908  0.76547232    -0.02800
C734        C  0.10126152  0.14634041  0.74667806     0.06900
C735        C  0.12695953  0.14926235  0.72754232    -0.02900
C736        C  0.14994256  0.12689346  0.72781222    -0.02900
C737        C  0.14849948  0.10230141  0.74855377     0.07000
C738        C  0.12276280  0.09925008  0.76754233    -0.03100
Br739      Br  0.12079160  0.06720042  0.79781975    -0.01700
Br740      Br  0.06199462  0.11199116  0.78804302    -0.01700
Br741      Br  0.18195590  0.12868346  0.69769935    -0.01700
Br742      Br  0.12981453  0.18244150  0.69878230    -0.01700
C743        C  0.10168254  0.37536265  0.73017824    -0.02800
C744        C  0.10385239  0.35105656  0.75124704     0.06900
C745        C  0.12861098  0.35026067  0.77165267    -0.02900
C746        C  0.15086049  0.37334727  0.77105839    -0.02900
C747        C  0.14839038  0.39795171  0.75038831     0.07000
C748        C  0.12337040  0.39904158  0.73022963    -0.03100
Br749      Br  0.11886499  0.43240699  0.70181184    -0.01700
Br750      Br  0.07016754  0.37533509  0.69955987    -0.01700
Br751      Br  0.18365490  0.37200466  0.80030334    -0.01700
Br752      Br  0.13145524  0.31856616  0.80188332    -0.01700
C753        C  0.36735353  0.25477668  0.65517083    -0.02800
C754        C  0.39826989  0.24878324  0.64782055     0.06900
C755        C  0.40543564  0.24172095  0.61676388    -0.02900
C756        C  0.38215403  0.23921053  0.59476669    -0.02900
C757        C  0.35248918  0.24970947  0.60151533     0.07000
C758        C  0.34597007  0.25906480  0.63176456    -0.03100
Br759      Br  0.30893070  0.28069707  0.64175787    -0.01700
Br760      Br  0.35177478  0.25548982  0.69669188    -0.01700
Br761      Br  0.39135865  0.21903567  0.55631157    -0.01700
Br762      Br  0.44659464  0.23482043  0.60257669    -0.01700
C763        C  0.15563908  0.24895262  0.63396848    -0.02800
C764        C  0.14820127  0.25037299  0.60237777     0.06900
C765        C  0.11717721  0.25402810  0.59452200    -0.02900
C766        C  0.09446064  0.24982395  0.61668978    -0.02900
C767        C  0.10191234  0.25131613  0.64826717     0.07000
C768        C  0.13304807  0.25390452  0.65617274    -0.03100
Br769      Br  0.14623987  0.26825948  0.69599120    -0.01700
Br770      Br  0.19608249  0.23983143  0.64872877    -0.01700
Br771      Br  0.05393718  0.24106211  0.60188522    -0.01700
Br772      Br  0.10449447  0.26996682  0.55527332    -0.01700
C773        C  0.13254047  0.24632163  0.84518875    -0.02800
C774        C  0.10162025  0.24212404  0.85326287     0.06900
C775        C  0.09455553  0.23686870  0.88458573    -0.02900
C776        C  0.11765685  0.23762654  0.90686520    -0.02900
C777        C  0.14746171  0.24714262  0.89890265     0.07000
C778        C  0.15411780  0.25273091  0.86779477    -0.03100
Br779      Br  0.19159001  0.27196223  0.85490120    -0.01700
Br780      Br  0.14794167  0.23930427  0.80416895    -0.01700
Br781      Br  0.10749714  0.22389384  0.94782173    -0.01700
Br782      Br  0.05400811  0.22610670  0.89822921    -0.01700
C783        C  0.40494800  0.25790113  0.88378296    -0.02800
C784        C  0.39761490  0.25267500  0.85245892     0.06900
C785        C  0.36651961  0.24887837  0.84471057    -0.02900
C786        C  0.34520288  0.24305572  0.86767208    -0.02900
C787        C  0.35178965  0.25087203  0.89828683     0.07000
C788        C  0.38163631  0.26042718  0.90564928    -0.03100
Br789      Br  0.39125190  0.27945828  0.94460139    -0.01700
Br790      Br  0.44618721  0.26290702  0.89846555    -0.01700
Br791      Br  0.30852807  0.22151215  0.85627344    -0.01700
Br792      Br  0.35035493  0.25585150  0.80409759    -0.01700
C793        C  0.37840415  0.34800666  0.52185896    -0.02800
C794        C  0.35104626  0.35293701  0.50549842     0.06900
C795        C  0.34498301  0.38254156  0.99431548    -0.02900
C796        C  0.36505595  0.40668399  0.00041241    -0.02900
C797        C  0.39462221  0.40059296  0.51148228     0.07000
C798        C  0.40014898  0.37157432  0.52451504    -0.03100
Br799      Br  0.43507108  0.36528301  0.55054490    -0.01700
Br800      Br  0.38634769  0.30966254  0.54209680    -0.01700
Br801      Br  0.34861778  0.44763790  0.99904051    -0.01700
Br802      Br  0.31057747  0.39055384  0.96807451    -0.01700
C803        C  0.38115860  0.15569108  0.98155253    -0.02800
C804        C  0.35274561  0.14993103  0.49549284     0.06900
C805        C  0.34674687  0.12057016  0.50724218    -0.02900
C806        C  0.36765358  0.09672103  0.50300773    -0.02900
C807        C  0.39732831  0.10293169  0.49174343     0.07000
C808        C  0.40370094  0.13284743  0.98087396    -0.03100
Br809      Br  0.44266443  0.14332963  0.96335302    -0.01700
Br810      Br  0.38959425  0.19445807  0.96213840    -0.01700
Br811      Br  0.35343856  0.05585225  0.51209728    -0.01700
Br812      Br  0.31110961  0.11302650  0.53219516    -0.01700
C813        C  0.09376855  0.36683167  0.49024396    -0.02800
C814        C  0.10056280  0.39730998  0.49933519     0.06900
C815        C  0.13136097  0.40462063  0.00620884    -0.02900
C816        C  0.15324819  0.38134610  0.00864424    -0.02900
C817        C  0.14670386  0.35130579  0.49848269     0.07000
C818        C  0.11712345  0.34493494  0.48754999    -0.03100
Br819      Br  0.10852152  0.30742823  0.46573538    -0.01700
Br820      Br  0.05299099  0.35397226  0.47967059    -0.01700
Br821      Br  0.19157341  0.39138185  0.02799305    -0.01700
Br822      Br  0.14589474  0.44624765  0.01098843    -0.01700
C823        C  0.13447403  0.09301141  0.49898074    -0.02800
C824        C  0.10335624  0.10059879  0.50364526     0.06900
C825        C  0.09622677  0.13151886  0.01063760    -0.02900
C826        C  0.11938286  0.15362547  0.01247054    -0.02900
C827        C  0.14912092  0.14691429  0.50225273     0.07000
C828        C  0.15618779  0.11622285  0.49476602    -0.03100
Br829      Br  0.19502362  0.10482150  0.47723501    -0.01700
Br830      Br  0.14982253  0.05153122  0.50147535    -0.01700
Br831      Br  0.11015251  0.19186690  0.03256785    -0.01700
Br832      Br  0.05531044  0.14481926  0.02009971    -0.01700
C833        C  0.37556777  0.47453842  0.89535620    -0.02800
C834        C  0.40183599  0.99265129  0.89237123     0.06900
C835        C  0.40539457  0.01034164  0.86555885    -0.02900
C836        C  0.38094857  0.01403224  0.84517110    -0.02900
C837        C  0.35380429  0.99737167  0.84932309     0.07000
C838        C  0.35156956  0.47700228  0.87424242    -0.03100
Br839      Br  0.31647281  0.45096684  0.87900203    -0.01700
Br840      Br  0.37464331  0.44254646  0.92528115    -0.01700
Br841      Br  0.38431351  0.04392557  0.81288006    -0.01700
Br842      Br  0.44412230  0.02772841  0.85457729    -0.01700
C843        C  0.12701865  0.02104179  0.89909727    -0.02800
C844        C  0.10228555  0.00057197  0.89716944     0.06900
C845        C  0.10006612  0.48168215  0.87081361    -0.02900
C846        C  0.12394244  0.48044249  0.84936207    -0.02900
C847        C  0.14937833  0.99980511  0.85239860     0.07000
C848        C  0.15059833  0.02037340  0.87725806    -0.03100
Br849      Br  0.18365665  0.04917814  0.88063204    -0.01700
Br850      Br  0.12613674  0.05386742  0.92817040    -0.01700
Br851      Br  0.12221514  0.45069711  0.81658948    -0.01700
Br852      Br  0.06363427  0.45899196  0.86176276    -0.01700
C853        C  0.11830717  0.47589887  0.60710275    -0.02800
C854        C  0.09640284  0.99929483  0.60686460     0.06900
C855        C  0.09649292  0.02088740  0.63094699    -0.02900
C856        C  0.12161104  0.02297482  0.65075416    -0.02900
C857        C  0.14502383  0.00101010  0.64930563     0.07000
C858        C  0.14248720  0.47668987  0.62819627    -0.03100
Br859      Br  0.17055629  0.44300822  0.62985241    -0.01700
Br860      Br  0.11159692  0.43985426  0.58268187    -0.01700
Br861      Br  0.12421290  0.05686968  0.67895079    -0.01700
Br862      Br  0.06085601  0.04468124  0.64005500    -0.01700
C863        C  0.37592425  0.02760504  0.60498396    -0.02800
C864        C  0.39340429  0.00150801  0.59831234     0.06900
C865        C  0.38770575  0.47421442  0.61431079    -0.02900
C866        C  0.36724125  0.47404633  0.63902783    -0.02900
C867        C  0.34930808  0.99994827  0.64504259     0.07000
C868        C  0.35306325  0.02641835  0.62734394    -0.03100
Br869      Br  0.32742292  0.06137708  0.63437191    -0.01700
Br870      Br  0.38356906  0.06526980  0.58428577    -0.01700
Br871      Br  0.36380555  0.43848536  0.66464582    -0.01700
Br872      Br  0.40519280  0.43645565  0.60012198    -0.01700
C873        C  0.02650812  0.11026760  0.88406102    -0.02800
C874        C  0.99894289  0.09744432  0.89388409     0.06900
C875        C  0.47138375  0.10857033  0.88216155    -0.02900
C876        C  0.47160766  0.13135483  0.85951046    -0.02900
C877        C  0.99917625  0.14475820  0.85030628     0.07000
C878        C  0.02658866  0.13475999  0.86335267    -0.03100
Br879      Br  0.06409090  0.15539216  0.85397358    -0.01700
Br880      Br  0.06415226  0.09418011  0.89905431    -0.01700
Br881      Br  0.43416590  0.14454950  0.84136833    -0.01700
Br882      Br  0.43340475  0.09363447  0.89813028    -0.01700
C883        C  0.03013405  0.36041827  0.86810031    -0.02800
C884        C  0.00276751  0.34730440  0.85791697     0.06900
C885        C  0.47528273  0.35508174  0.87231239    -0.02900
C886        C  0.47490914  0.37732088  0.89556630    -0.02900
C887        C  0.00208354  0.39148212  0.90483090     0.07000
C888        C  0.02984314  0.38199588  0.89203738    -0.03100
Br889      Br  0.06745102  0.39686571  0.90893238    -0.01700
Br890      Br  0.06796544  0.34835858  0.84966655    -0.01700
Br891      Br  0.43720001  0.38808739  0.91496736    -0.01700
Br892      Br  0.43810092  0.33528605  0.86008373    -0.01700
C893        C  0.98373913  0.38371130  0.65829155    -0.02800
C894        C  0.00085362  0.35681638  0.65378539     0.06900
C895        C  0.52019766  0.35472709  0.62821039    -0.02900
C896        C  0.51996022  0.37760020  0.60565669    -0.02900
C897        C  0.00174835  0.40403521  0.60932625     0.07000
C898        C  0.98558482  0.40788592  0.63713947    -0.03100
Br899      Br  0.96700479  0.44635421  0.64801783    -0.01700
Br900      Br  0.95635140  0.38727320  0.69265012    -0.01700
Br901      Br  0.54721291  0.37345211  0.57127563    -0.01700
Br902      Br  0.54940298  0.32198629  0.62541042    -0.01700
C903        C  0.02958011  0.11854160  0.61066429    -0.02800
C904        C  0.00251237  0.10947681  0.59612395     0.06900
C905        C  0.47528316  0.12444398  0.60360243    -0.02900
C906        C  0.47425572  0.14545662  0.62797237    -0.02900
C907        C  0.00078361  0.15219824  0.64457124     0.07000
C908        C  0.02853653  0.13899359  0.63561355    -0.03100
Br909      Br  0.06507115  0.14910472  0.65751864    -0.01700
Br910      Br  0.06814423  0.10641349  0.59385909    -0.01700
Br911      Br  0.43631921  0.16445727  0.63880284    -0.01700
Br912      Br  0.44007776  0.11816715  0.57854018    -0.01700
O913        O  0.00027660  0.55658070  0.08395664    -0.81100
O914        O  0.99911323  0.54593405  0.41074469    -0.82700
O915        O  0.05111723  0.58532950  0.99747180    -0.79700
O916        O  0.44952990  0.58737568  0.99563298    -0.78100
O917        O  0.41333081  0.55074335  0.99154132    -0.79800
O918        O  0.08658975  0.54858766  0.00402317    -0.80800
O919        O  0.99962932  0.58477804  0.44602904    -0.82100
O920        O  0.00209003  0.59138803  0.04501262    -0.82400
Eu921      Eu  0.99978892  0.56221093  0.99708398     2.39200
O922        O  0.46983520  0.52979295  0.46640140    -0.89900
O923        O  0.02909408  0.53226269  0.03018226    -0.93500
C924        C  0.00205872  0.58418266  0.07355357     1.01200
C925        C  0.99907030  0.57447336  0.41841440     1.01000
C926        C  0.07881747  0.57671857  0.00164960     1.00900
C927        C  0.42161743  0.57888433  0.99271348     0.98800
H928        H  0.04388067  0.54164360  0.45527795     0.28600
O929        O  0.03096387  0.52940503  0.46817987    -1.02300
H930        H  0.45435814  0.54705732  0.04051932     0.28600
O931        O  0.46723625  0.53356025  0.02880174    -1.04800
O932        O  0.00312300  0.94413159  0.41691184    -0.82100
O933        O  0.99920305  0.95558744  0.09097904    -0.81600
O934        O  0.08676709  0.50022940  0.45029158    -0.80000
O935        O  0.41490736  0.49634526  0.44548885    -0.83400
O936        O  0.41014605  0.50324182  0.04673380    -0.81200
O937        O  0.08305350  0.49934766  0.05382309    -0.79900
O938        O  0.04832419  0.91300125  0.00468426    -0.81400
O939        O  0.44740606  0.91414762  0.00781193    -0.83300
O940        O  0.08431217  0.94938806  0.99882576    -0.80100
O941        O  0.41214103  0.95174736  0.00437281    -0.82700
O942        O  0.05057292  0.49860827  0.41305322    -0.78500
O943        O  0.04535396  0.50248654  0.08968523    -0.78500
O944        O  0.44555422  0.50272022  0.08511296    -0.78100
O945        O  0.45291513  0.49292936  0.41020936    -0.81600
O946        O  0.99882723  0.90938234  0.45579889    -0.81100
O947        O  0.99855904  0.91656679  0.05633609    -0.79400
Eu948      Eu  0.00087222  0.49651961  0.43805574     2.39800
Eu949      Eu  0.99699502  0.50401842  0.06237575     2.39600
Eu950      Eu  0.06059006  0.49961106  0.00136163     2.38400
Eu951      Eu  0.43757500  0.50086947  0.99759412     2.39900
Eu952      Eu  0.99813084  0.93810909  0.00416051     2.39800
O953        O  0.46699924  0.97183222  0.03172981    -0.93800
O954        O  0.03000501  0.96694013  0.47183608    -0.92700
C955        C  0.00139072  0.91660385  0.42734736     1.01400
C956        C  0.99961598  0.92692301  0.08403459     1.00100
C957        C  0.07843018  0.49976682  0.42178035     0.99500
C958        C  0.42468862  0.49385754  0.41761031     1.01500
C959        C  0.41792933  0.50271385  0.07519511     1.00400
C960        C  0.07344491  0.50058409  0.08187614     0.99200
C961        C  0.07616803  0.92133295  0.00106626     0.99300
C962        C  0.41964504  0.92363426  0.00805579     1.01900
H963        H  0.04082809  0.95876790  0.04691416     0.29300
O964        O  0.02848277  0.97104351  0.03353323    -1.06000
H965        H  0.45635958  0.95369603  0.45767415     0.31300
O966        O  0.46877979  0.96725506  0.46980721    -1.08500
O967        O  0.00024355  0.70326584  0.16202772    -0.81100
O968        O  0.99899269  0.69708788  0.33704526    -0.82700
O969        O  0.04953187  0.66236313  0.24632196    -0.79700
O970        O  0.44981713  0.66310409  0.25078572    -0.78100
O971        O  0.41327120  0.70010302  0.25069718    -0.79800
O972        O  0.08658502  0.69865976  0.24944998    -0.80800
O973        O  0.99981453  0.66122578  0.29878046    -0.82100
O974        O  0.99967843  0.66467660  0.19735977    -0.82400
Eu975      Eu  0.99972213  0.68771435  0.24894842     2.39200
O976        O  0.46889210  0.71813771  0.28068766    -0.89900
O977        O  0.03025080  0.71980645  0.21891148    -0.93500
C978        C  0.00006173  0.67482310  0.16965141     1.01200
C979        C  0.99932545  0.66928138  0.32722255     1.01000
C980        C  0.07759799  0.67065615  0.24741329     1.00900
C981        C  0.42190706  0.67184218  0.25081401     0.98800
H982        H  0.04312697  0.70389247  0.29319804     0.28600
O983        O  0.03072443  0.71726638  0.28095652    -1.02300
H984        H  0.45669061  0.70771027  0.20591368     0.28600
O985        O  0.46932480  0.72013146  0.21899341    -1.04800
O986        O  0.00181865  0.79636188  0.34048593    -0.82100
O987        O  0.99840100  0.80400758  0.16657828    -0.81600
O988        O  0.08548506  0.74599972  0.30121801    -0.80000
O989        O  0.41343767  0.75160220  0.30015945    -0.83400
O990        O  0.41427380  0.74897231  0.20031118    -0.81200
O991        O  0.08612656  0.74744115  0.20057311    -0.79900
O992        O  0.05206011  0.83617098  0.25369810    -0.81400
O993        O  0.45233002  0.83834933  0.25235312    -0.83300
O994        O  0.08818186  0.79878326  0.25126880    -0.80100
O995        O  0.41501661  0.80215244  0.24951933    -0.82700
O996        O  0.04943646  0.74549196  0.33795459    -0.78500
O997        O  0.04992288  0.75393921  0.16447919    -0.78500
O998        O  0.45034743  0.75258903  0.16378169    -0.78100
O999        O  0.44957945  0.74864029  0.33668752    -0.81600
O1000       O  0.00292892  0.83494748  0.30523765    -0.81100
O1001       O  0.00202336  0.83925880  0.20503422    -0.79400
Eu1002     Eu  0.99997020  0.74765359  0.31277104     2.39800
Eu1003     Eu  0.99996366  0.75250119  0.18923690     2.39600
Eu1004     Eu  0.06170808  0.74898470  0.25088105     2.38400
Eu1005     Eu  0.43871047  0.75068299  0.25063316     2.39900
Eu1006     Eu  0.00156603  0.81199963  0.25374722     2.39800
O1007       O  0.46991666  0.78284169  0.22146057    -0.93800
O1008       O  0.03172834  0.77936065  0.28345946    -0.92700
C1009       C  0.00275202  0.82475569  0.33289969     1.01400
C1010       C  0.00014818  0.83175566  0.17659196     1.00100
C1011       C  0.07729993  0.74444236  0.32937027     0.99500
C1012       C  0.42170793  0.75091487  0.32829783     1.01500
C1013       C  0.42246091  0.75015253  0.17210741     1.00400
C1014       C  0.07780579  0.75085025  0.17258600     0.99200
C1015       C  0.07988147  0.82708655  0.25225944     0.99300
C1016       C  0.42426494  0.83023193  0.25049032     1.01900
H1017       H  0.04435176  0.79469127  0.20879902     0.29300
O1018       O  0.03159176  0.78177072  0.22116449    -1.06000
H1019       H  0.45740841  0.79310207  0.29605924     0.31300
O1020       O  0.46981607  0.78038739  0.28301583    -1.08500
O1021       O  0.33568285  0.99926353  0.19727774    -0.81100
O1022       O  0.16216990  0.00132411  0.20061529    -0.82700
O1023       O  0.24825439  0.95037558  0.16107620    -0.79700
O1024       O  0.24944274  0.55010054  0.16166025    -0.78100
O1025       O  0.24950420  0.58692405  0.19888694    -0.79800
O1026       O  0.25060062  0.91333133  0.19778372    -0.80800
O1027       O  0.19770071  0.00089206  0.16250560    -0.82100
O1028       O  0.29820644  0.99958762  0.16099888    -0.82400
Eu1029     Eu  0.24865019  0.00014003  0.18668961     2.39200
O1030       O  0.21893955  0.53143244  0.21843079    -0.89900
O1031       O  0.28028340  0.96897678  0.21684351    -0.93500
C1032       C  0.32625018  0.99937953  0.16937458     1.01200
C1033       C  0.16996950  0.00132358  0.17219791     1.01000
C1034       C  0.24938111  0.92230110  0.16971749     1.00900
C1035       C  0.24949176  0.57815635  0.17069819     0.98800
H1036       H  0.20569467  0.95632802  0.20554774     0.28600
O1037       O  0.21865401  0.96893318  0.21813462    -1.02300
H1038       H  0.29303135  0.54342950  0.20451812     0.28600
O1039       O  0.28045163  0.53080809  0.21736218    -1.04800
O1040       O  0.16453368  0.00098705  0.30031930    -0.82100
O1041       O  0.33707793  0.99840587  0.29774358    -0.81600
O1042       O  0.20006022  0.91332091  0.24859766    -0.80000
O1043       O  0.20069150  0.58773786  0.24983536    -0.83400
O1044       O  0.30100236  0.58635661  0.24792292    -0.81200
O1045       O  0.30069545  0.91280206  0.24901273    -0.79900
O1046       O  0.25055952  0.94969960  0.33585771    -0.81400
O1047       O  0.25381899  0.55035378  0.33640846    -0.83300
O1048       O  0.24923632  0.91282894  0.29866269    -0.80100
O1049       O  0.25301842  0.58717872  0.29933885    -0.82700
O1050       O  0.16347696  0.95025241  0.25053985    -0.78500
O1051       O  0.33713199  0.94992666  0.24771210    -0.78500
O1052       O  0.33732707  0.54925910  0.24939276    -0.78100
O1053       O  0.16430286  0.55059693  0.24857605    -0.81600
O1054       O  0.20139850  0.99941232  0.33696613    -0.81100
O1055       O  0.30147175  0.00026940  0.33560452    -0.79400
Eu1056     Eu  0.18882695  0.00036838  0.24985173     2.39800
Eu1057     Eu  0.31155956  0.99962679  0.24787753     2.39600
Eu1058     Eu  0.25030357  0.93790950  0.24844057     2.38400
Eu1059     Eu  0.25054924  0.56209572  0.24909489     2.39900
Eu1060     Eu  0.25120079  0.00009947  0.31111462     2.39800
O1061       O  0.28156121  0.53085734  0.27948226    -0.93800
O1062       O  0.22019638  0.96927557  0.28000425    -0.92700
C1063       C  0.17336579  0.00003920  0.32841225     1.01400
C1064       C  0.32916863  0.99902572  0.32613889     1.00100
C1065       C  0.17212717  0.92209438  0.24975081     0.99500
C1066       C  0.17278064  0.57877264  0.24907048     1.01500
C1067       C  0.32889327  0.57743585  0.24881012     1.00400
C1068       C  0.32864478  0.92176797  0.24864141     0.99200
C1069       C  0.24967259  0.92159561  0.32687454     0.99300
C1070       C  0.25401940  0.57840727  0.32745636     1.01900
H1071       H  0.29405831  0.95595476  0.29204041     0.29300
O1072       O  0.28135281  0.96875563  0.27948606    -1.06000
H1073       H  0.20763566  0.54428188  0.29376241     0.31300
O1074       O  0.21997295  0.53143344  0.28078938    -1.08500
O1075       O  0.20081545  0.66349171  0.50286763    -0.81100
O1076       O  0.19865756  0.83553513  0.49626792    -0.82700
O1077       O  0.16387743  0.74675546  0.04994986    -0.79700
O1078       O  0.16392036  0.75266335  0.45042661    -0.78100
O1079       O  0.19966580  0.74674653  0.41360384    -0.79800
O1080       O  0.20021627  0.75138784  0.08619949    -0.80800
O1081       O  0.16247851  0.79900628  0.50191448    -0.82100
O1082       O  0.16403927  0.69935589  0.49774980    -0.82400
Eu1083     Eu  0.18879040  0.74956857  0.49994320     2.39200
O1084       O  0.21871037  0.78083800  0.46847161    -0.89900
O1085       O  0.21973217  0.71882763  0.03063435    -0.93500
C1086       C  0.17279459  0.67145550  0.50080065     1.01200
C1087       C  0.17075407  0.82707043  0.49884115     1.01000
C1088       C  0.17226288  0.74932496  0.07802632     1.00900
C1089       C  0.17188785  0.74921433  0.42240186     0.98800
H1090       H  0.20636690  0.79356937  0.04352871     0.28600
O1091       O  0.21916722  0.78094367  0.03081592    -1.02300
H1092       H  0.20693990  0.70566682  0.45586602     0.28600
O1093       O  0.21943147  0.71866590  0.46850758    -1.04800
O1094       O  0.29946682  0.83648393  0.50365549    -0.82100
O1095       O  0.30105331  0.66522015  0.49486513    -0.81600
O1096       O  0.25072298  0.80016891  0.08653930    -0.80000
O1097       O  0.24887529  0.80051570  0.41234015    -0.83400
O1098       O  0.25222022  0.69987919  0.41230364    -0.81200
O1099       O  0.24870678  0.70017292  0.08704325    -0.79900
O1100       O  0.33659342  0.75292147  0.04941203    -0.81400
O1101       O  0.33559063  0.74805647  0.45002040    -0.83300
O1102       O  0.30043586  0.74805859  0.08605085    -0.80100
O1103       O  0.29970977  0.75232846  0.41306189    -0.82700
O1104       O  0.24802491  0.83693316  0.04944129    -0.78500
O1105       O  0.25099157  0.66320754  0.04994205    -0.78500
O1106       O  0.25122609  0.66269859  0.44908626    -0.78100
O1107       O  0.25062042  0.83761801  0.44930178    -0.81600
O1108       O  0.33660131  0.80060084  0.49970435    -0.81100
O1109       O  0.33722989  0.70183653  0.50059356    -0.79400
Eu1110     Eu  0.24931198  0.81203178  0.49933810     2.39800
Eu1111     Eu  0.25059382  0.68820304  0.49943769     2.39600
Eu1112     Eu  0.25020916  0.74997731  0.06158881     2.38400
Eu1113     Eu  0.24983226  0.75018162  0.43756595     2.39900
Eu1114     Eu  0.31105869  0.75090591  0.49985124     2.39800
O1115       O  0.28069725  0.71979111  0.46869490    -0.93800
O1116       O  0.28018170  0.78162078  0.03072567    -0.92700
C1117       C  0.32761351  0.82843091  0.50263070     1.01400
C1118       C  0.32889459  0.67390411  0.49703847     1.00100
C1119       C  0.24932747  0.82814342  0.07751371     0.99500
C1120       C  0.24979857  0.82870918  0.42112872     1.01500
C1121       C  0.25223837  0.67173716  0.42101359     1.00400
C1122       C  0.24968325  0.67208257  0.07813254     0.99200
C1123       C  0.32833493  0.75033084  0.07749463     0.99300
C1124       C  0.32748195  0.75024780  0.42190742     1.01900
H1125       H  0.29408069  0.70624565  0.04334455     0.29300
O1126       O  0.28130032  0.71897043  0.03080615    -1.06000
H1127       H  0.29322625  0.79448582  0.45589287     0.31300
O1128       O  0.28056209  0.78161062  0.46841265    -1.08500
C1129       C  0.27138406  0.62574806  0.14802144    -0.02800
C1130       C  0.24961789  0.60210884  0.14699410     0.06900
C1131       C  0.22769013  0.60173933  0.12349562    -0.02900
C1132       C  0.22713025  0.62520884  0.10162942    -0.02900
C1133       C  0.24944189  0.64827788  0.10205013     0.07000
C1134       C  0.27154146  0.64849131  0.12537858    -0.03100
Br1135     Br  0.30293876  0.67922739  0.12584652    -0.01700
Br1136     Br  0.30208273  0.62645687  0.17958322    -0.01700
Br1137     Br  0.19418675  0.62704393  0.07268597    -0.01700
Br1138     Br  0.19739832  0.56988233  0.12175945    -0.01700
C1139       C  0.22693460  0.87516558  0.14655688    -0.02800
C1140       C  0.24893267  0.89857494  0.14568241     0.06900
C1141       C  0.27026895  0.89924091  0.12161068    -0.02900
C1142       C  0.27137147  0.87521624  0.10035673    -0.02900
C1143       C  0.24924412  0.85209852  0.10107519     0.07000
C1144       C  0.22647642  0.85261020  0.12363045    -0.03100
Br1145     Br  0.19328235  0.82397167  0.12166123    -0.01700
Br1146     Br  0.19593912  0.87507082  0.17775789    -0.01700
Br1147     Br  0.30425482  0.87323015  0.07126510    -0.01700
Br1148     Br  0.29781156  0.93304610  0.11684709    -0.01700
C1149       C  0.27139100  0.87418520  0.35034335    -0.02800
C1150       C  0.24942871  0.89762490  0.35074924     0.06900
C1151       C  0.22748095  0.89824351  0.37425642    -0.06900
C1152       C  0.22763996  0.87577916  0.39725923    -0.02900
C1153       C  0.24985313  0.85257343  0.39709516     0.07000
C1154       C  0.27186238  0.85204359  0.37364209    -0.03100
Br1155     Br  0.30399797  0.82214657  0.37432579    -0.01700
Br1156     Br  0.30171188  0.87282870  0.31846959    -0.01700
Br1157     Br  0.19632810  0.87606651  0.42813288    -0.01700
Br1158     Br  0.19583013  0.92869585  0.37399063    -0.01700
C1159       C  0.22843157  0.62121743  0.35477412    -0.02800
C1160       C  0.25415090  0.60245501  0.35118997     0.06900
C1161       C  0.27968063  0.60699405  0.37010567    -0.02900
C1162       C  0.27953460  0.63058962  0.39212456    -0.02900
C1163       C  0.25310884  0.64807606  0.39688924     0.07000
C1164       C  0.22753533  0.64324008  0.37823131    -0.03100
Br1165     Br  0.19090165  0.66623993  0.38537574    -0.01700
Br1166     Br  0.19413920  0.61652519  0.32772700    -0.01700
Br1167     Br  0.31608088  0.64046854  0.41426675    -0.01700
Br1168     Br  0.31515771  0.58163397  0.36524876    -0.01700
C1169       C  0.35034247  0.62652130  0.26952539    -0.02800
C1170       C  0.35291073  0.60129493  0.24947238     0.06900
C1171       C  0.37876544  0.59887030  0.23050983    -0.02900
C1172       C  0.40096709  0.62202715  0.23069937    -0.02900
C1173       C  0.39825242  0.64746438  0.25055571     0.07000
C1174       C  0.37317743  0.64897241  0.27054042    -0.03100
Br1175     Br  0.37126470  0.67994808  0.30170354    -0.01700
Br1176     Br  0.31641777  0.62989768  0.29722753    -0.01700
Br1177     Br  0.43465338  0.61872147  0.20279018    -0.01700
Br1178     Br  0.38383697  0.56437757  0.20324720    -0.01700
C1179       C  0.40084283  0.87924381  0.27046551    -0.02800
C1180       C  0.40086844  0.85485319  0.24920167     0.06900
C1181       C  0.37819513  0.85404326  0.22646682    -0.02900
C1182       C  0.35380832  0.87483067  0.22714723    -0.02900
C1183       C  0.35297673  0.89826788  0.24933213     0.07000
C1184       C  0.37677206  0.90044610  0.27088676    -0.03100
Br1185     Br  0.37565004  0.93128169  0.30253726    -0.01700
Br1186     Br  0.43424924  0.88497447  0.29830699    -0.01700
Br1187     Br  0.32218550  0.87160628  0.19676940    -0.01700
Br1188     Br  0.38341932  0.82807116  0.19130713    -0.01700
C1189       C  0.09867930  0.62024418  0.26549743    -0.02800
C1190       C  0.10126891  0.64635475  0.24670207     0.06900
C1191       C  0.12696017  0.64927371  0.22755781    -0.02900
C1192       C  0.14993991  0.62690136  0.22781899    -0.02900
C1193       C  0.14850236  0.60231040  0.24856244     0.07000
C1194       C  0.12277038  0.59926122  0.26755850    -0.03100
Br1195     Br  0.12079840  0.56720417  0.29782772    -0.01700
Br1196     Br  0.06200925  0.61201227  0.28807859    -0.01700
Br1197     Br  0.18193384  0.62867933  0.19768523    -0.01700
Br1198     Br  0.12980544  0.68245200  0.19879553    -0.01700
C1199       C  0.10166726  0.87537381  0.23018725    -0.02800
C1200       C  0.10384168  0.85106184  0.25124831     0.06900
C1201       C  0.12861121  0.85025348  0.27163996    -0.02900
C1202       C  0.15085861  0.87334272  0.27104994    -0.02900
C1203       C  0.14838401  0.89795501  0.25038868     0.07000
C1204       C  0.12335941  0.89904929  0.23023527    -0.03100
Br1205     Br  0.11885713  0.93241185  0.20181376    -0.01700
Br1206     Br  0.07014437  0.87535288  0.19957709    -0.01700
Br1207     Br  0.18365781  0.87198877  0.30028808    -0.01700
Br1208     Br  0.13148236  0.81852823  0.30183722    -0.01700
C1209       C  0.36734583  0.75480236  0.15516461    -0.02800
C1210       C  0.39825820  0.74877924  0.14782287     0.06900
C1211       C  0.40542542  0.74169394  0.11677203    -0.02900
C1212       C  0.38214747  0.73919373  0.09476996    -0.02900
C1213       C  0.35248759  0.74971089  0.10151125     0.07000
C1214       C  0.34596932  0.75908942  0.13175247    -0.03100
Br1215     Br  0.30894386  0.78075805  0.14171989    -0.01700
Br1216     Br  0.35176375  0.75556422  0.19668278    -0.01700
Br1217     Br  0.39134994  0.71901787  0.05631453    -0.01700
Br1218     Br  0.44658234  0.73474400  0.10260346    -0.01700
C1219       C  0.15563023  0.74895781  0.13396268    -0.02800
C1220       C  0.14819147  0.75037714  0.10237219     0.06900
C1221       C  0.11716652  0.75403425  0.09451931    -0.02900
C1222       C  0.09445060  0.74983354  0.11668929    -0.02900
C1223       C  0.10190465  0.75132733  0.14826600     0.07000
C1224       C  0.13304109  0.75391444  0.15616827    -0.03100
Br1225     Br  0.14623594  0.76827921  0.19598177    -0.01700
Br1226     Br  0.19607267  0.73983149  0.14872079    -0.01700
Br1227     Br  0.05392356  0.74107927  0.10188924    -0.01700
Br1228     Br  0.10448279  0.76997873  0.05527443    -0.01700
C1229       C  0.13251804  0.74630129  0.34519038    -0.02800
C1230       C  0.10159644  0.74212567  0.35326635     0.06900
C1231       C  0.09452947  0.73688125  0.38459093    -0.02900
C1232       C  0.11763591  0.73761642  0.40686583    -0.02900
C1233       C  0.14744317  0.74712435  0.39890145     0.07000
C1234       C  0.15409624  0.75271317  0.36779332    -0.03100
Br1235     Br  0.19155878  0.77195636  0.35489410    -0.01700
Br1236     Br  0.14791829  0.73924100  0.30417771    -0.01700
Br1237     Br  0.10748073  0.72386064  0.44781522    -0.01700
Br1238     Br  0.05397117  0.72617345  0.39824633    -0.01700
C1239       C  0.40493511  0.75785164  0.38377915    -0.02800
C1240       C  0.39760309  0.75264373  0.35245164     0.06900
C1241       C  0.36650614  0.74886458  0.34469929    -0.02900
C1242       C  0.34518527  0.74304899  0.36765908    -0.02900
C1243       C  0.35177105  0.75086797  0.39827374     0.07000
C1244       C  0.38162016  0.76041123  0.40563654    -0.03100
Br1245     Br  0.39123339  0.77948263  0.44456856    -0.01700
Br1246     Br  0.44617589  0.76276028  0.39848836    -0.01700
Br1247     Br  0.30851068  0.72150730  0.35625855    -0.01700
Br1248     Br  0.35034772  0.75583482  0.30408280    -0.01700
C1249       C  0.37843036  0.84799585  0.02184397    -0.02800
C1250       C  0.35106591  0.85292823  0.00549417     0.06900
C1251       C  0.34496912  0.88255120  0.49431048    -0.02900
C1252       C  0.36505196  0.90668912  0.50039459    -0.02900
C1253       C  0.39462634  0.90059572  0.01149995     0.07000
C1254       C  0.40016359  0.87157250  0.02451748    -0.03100
Br1255     Br  0.43507905  0.86528800  0.05055809    -0.01700
Br1256     Br  0.38640652  0.80963322  0.04203460    -0.01700
Br1257     Br  0.34863340  0.94765068  0.49898541    -0.01700
Br1258     Br  0.31055923  0.89056693  0.46807646    -0.01700
C1259       C  0.38115385  0.65568655  0.48158340    -0.02800
C1260       C  0.35274767  0.64993830  0.99545167     0.06900
C1261       C  0.34674107  0.62057411  0.00718678    -0.02900
C1262       C  0.36764122  0.59672250  0.00294026    -0.02900
C1263       C  0.39732760  0.60293685  0.99170842     0.07000
C1264       C  0.40369265  0.63283960  0.48088749    -0.03100
Br1265     Br  0.44263704  0.64330521  0.46331475    -0.01700
Br1266     Br  0.38959688  0.69446566  0.46219468    -0.01700
Br1267     Br  0.35339462  0.55584882  0.01195808    -0.01700
Br1268     Br  0.31110398  0.61302652  0.03213882    -0.01700
C1269       C  0.09377150  0.86682953  0.99032473    -0.02800
C1270       C  0.10057252  0.89731794  0.99937898     0.06900
C1271       C  0.13134552  0.90460816  0.50618682    -0.02900
C1272       C  0.15322815  0.88133154  0.50862946    -0.02900
C1273       C  0.14671750  0.85131400  0.99851912     0.07000
C1274       C  0.11712476  0.84493199  0.98762584    -0.03100
Br1275     Br  0.10849390  0.80740149  0.96586246    -0.01700
Br1276     Br  0.05298258  0.85394681  0.97982072    -0.01700
Br1277     Br  0.19153612  0.89135539  0.52801742    -0.01700
Br1278     Br  0.14588203  0.94623365  0.51096982    -0.01700
C1279       C  0.13447265  0.59302089  0.99898055    -0.02800
C1280       C  0.10335373  0.60061209  0.00363151     0.06900
C1281       C  0.09622507  0.63150635  0.51065923    -0.02900
C1282       C  0.11938007  0.65361366  0.51249537    -0.02900
C1283       C  0.14912273  0.64692382  0.00222971     0.07000
C1284       C  0.15618806  0.61622888  0.99475628    -0.03100
Br1285     Br  0.19502308  0.60481672  0.97723085    -0.01700
Br1286     Br  0.14982101  0.55154318  0.00151297    -0.01700
Br1287     Br  0.11015307  0.69184750  0.53260770    -0.01700
Br1288     Br  0.05531010  0.64479977  0.52013783    -0.01700
C1289       C  0.37557855  0.97451559  0.39534007    -0.02800
C1290       C  0.40183714  0.49263450  0.39236186     0.06900
C1291       C  0.40538338  0.51034304  0.36556065    -0.02900
C1292       C  0.38092867  0.51404586  0.34518707    -0.02900
C1293       C  0.35379191  0.49737274  0.34933364     0.07000
C1294       C  0.35157069  0.97699291  0.37423904    -0.03100
Br1295     Br  0.31646702  0.95096961  0.37901158    -0.01700
Br1296     Br  0.37468132  0.94249071  0.42523102    -0.01700
Br1297     Br  0.38426561  0.54398058  0.31293217    -0.01700
Br1298     Br  0.44410850  0.52772653  0.35456630    -0.01700
C1299       C  0.12701008  0.52104460  0.39908616    -0.02800
C1300       C  0.10227295  0.50058133  0.39714883     0.06900
C1301       C  0.10005497  0.98170705  0.37078643    -0.02900
C1302       C  0.12393777  0.98046339  0.34934318    -0.02900
C1303       C  0.14937440  0.49981370  0.35238855     0.07000
C1304       C  0.15059513  0.52037463  0.37725368    -0.03100
Br1305     Br  0.18366192  0.54916696  0.38064652    -0.01700
Br1306     Br  0.12611919  0.55387422  0.42815273    -0.01700
Br1307     Br  0.12221153  0.95072397  0.31656469    -0.01700
Br1308     Br  0.06360781  0.95905660  0.36169877    -0.01700
C1309       C  0.11830259  0.97592583  0.10710903    -0.02800
C1310       C  0.09640174  0.49932582  0.10687009     0.06900
C1311       C  0.09650115  0.52092503  0.13094629    -0.02900
C1312       C  0.12162008  0.52300630  0.15075292    -0.02900
C1313       C  0.14502778  0.50103611  0.14930345     0.07000
C1314       C  0.14248670  0.97671725  0.12819669    -0.03100
Br1315     Br  0.17056239  0.94304027  0.12983965    -0.01700
Br1316     Br  0.11158841  0.93988042  0.08269005    -0.01700
Br1317     Br  0.12423129  0.55690025  0.17894979    -0.01700
Br1318     Br  0.06087797  0.54474459  0.14004080    -0.01700
C1319       C  0.37588892  0.52760970  0.10495742    -0.02800
C1320       C  0.39340526  0.50152857  0.09831958     0.06900
C1321       C  0.38773902  0.97424700  0.11434375    -0.02900
C1322       C  0.36727437  0.97408029  0.13905961    -0.02900
C1323       C  0.34931409  0.49996638  0.14505318     0.07000
C1324       C  0.35303808  0.52642345  0.12732805    -0.03100
Br1325     Br  0.32737487  0.56136983  0.13434049    -0.01700
Br1326     Br  0.38345733  0.56524892  0.08418529    -0.01700
Br1327     Br  0.36387776  0.93853860  0.16470898    -0.01700
Br1328     Br  0.40525863  0.93649247  0.10018376    -0.01700
C1329       C  0.02652625  0.61031809  0.38410399    -0.02800
C1330       C  0.99896503  0.59746669  0.39390307     0.06900
C1331       C  0.47140548  0.60856722  0.38215897    -0.02900
C1332       C  0.47162603  0.63134637  0.35950303    -0.02900
C1333       C  0.99918977  0.64476714  0.35030976     0.07000
C1334       C  0.02660155  0.63479805  0.36338023    -0.03100
Br1335     Br  0.06409584  0.65544690  0.35400360    -0.01700
Br1336     Br  0.06417182  0.59429200  0.39915696    -0.01700
Br1337     Br  0.43418470  0.64450981  0.34134033    -0.01700
Br1338     Br  0.43342827  0.59361186  0.39811419    -0.01700
C1339       C  0.03014372  0.86045875  0.36804921    -0.02800
C1340       C  0.00278021  0.84730635  0.35790762     0.06900
C1341       C  0.47530465  0.85504972  0.37233808    -0.02900
C1342       C  0.47493383  0.87728761  0.39559221    -0.02900
C1343       C  0.00210196  0.89148697  0.40481653     0.07000
C1344       C  0.02985711  0.88203597  0.39198646    -0.03100
Br1345     Br  0.06746864  0.89693963  0.40884298    -0.01700
Br1346     Br  0.06796529  0.84845289  0.34955784    -0.01700
Br1347     Br  0.43723679  0.88800024  0.41504750    -0.01700
Br1348     Br  0.43812865  0.83522068  0.36014476    -0.01700
C1349       C  0.98375041  0.88373401  0.15831002    -0.02800
C1350       C  0.00085434  0.85683313  0.15379941     0.06900
C1351       C  0.52020172  0.85474269  0.12822778    -0.02900
C1352       C  0.51996665  0.87761471  0.10567323    -0.02900
C1353       C  0.00176099  0.90405422  0.10934408     0.07000
C1354       C  0.98560685  0.90791134  0.13716216    -0.03100
Br1355     Br  0.96706446  0.94639299  0.14805855    -0.01700
Br1356     Br  0.95636466  0.88730218  0.19266963    -0.01700
Br1357     Br  0.54721561  0.87345872  0.07129097    -0.01700
Br1358     Br  0.54941161  0.82200481  0.12543854    -0.01700
C1359       C  0.02956900  0.61858322  0.11063181    -0.02800
C1360       C  0.00249554  0.60949526  0.09611654     0.06900
C1361       C  0.47525883  0.62443410  0.10362450    -0.02900
C1362       C  0.47423833  0.64545612  0.12798635    -0.02900
C1363       C  0.00077599  0.65222161  0.14455871     0.07000
C1364       C  0.02853108  0.63903754  0.13557903    -0.03100
Br1365     Br  0.06507520  0.64917708  0.15745512    -0.01700
Br1366     Br  0.06812872  0.60646455  0.09380989    -0.01700
Br1367     Br  0.43629957  0.66443901  0.13884136    -0.01700
Br1368     Br  0.44002381  0.61809147  0.07862347    -0.01700
O1369       O  0.00028749  0.55656189  0.58395954    -0.81100
O1370       O  0.99910267  0.54591751  0.91073699    -0.82700
O1371       O  0.05111892  0.58531956  0.49747936    -0.79700
O1372       O  0.44953175  0.58737237  0.49565197    -0.78100
O1373       O  0.41333265  0.55074027  0.49153986    -0.79800
O1374       O  0.08659111  0.54857645  0.50402645    -0.80800
O1375       O  0.99960987  0.58476816  0.94601405    -0.82100
O1376       O  0.00210098  0.59137286  0.54501924    -0.82400
Eu1377     Eu  0.99979031  0.56220345  0.49708851     2.39200
O1378       O  0.46983659  0.52979106  0.96640624    -0.89900
O1379       O  0.02909546  0.53224952  0.53018077    -0.93500
C1380       C  0.00207185  0.58416500  0.57355916     1.01200
C1381       C  0.99905051  0.57445776  0.91840110     1.01000
C1382       C  0.07881885  0.57670764  0.50165621     1.00900
C1383       C  0.42161925  0.57888094  0.49272897     0.98800
H1384       H  0.04388022  0.54164493  0.95527751     0.28600
O1385       O  0.03096417  0.52940805  0.96818183    -1.02300
H1386       H  0.45435810  0.54704293  0.54051985     0.28600
O1387       O  0.46723611  0.53354798  0.52879971    -1.04800
O1388       O  0.00310774  0.94412701  0.91692281    -0.82100
O1389       O  0.99919565  0.95557008  0.59096925    -0.81600
O1390       O  0.08677563  0.50022841  0.95030850    -0.80000
O1391       O  0.41490606  0.49636458  0.94549961    -0.83400
O1392       O  0.41014516  0.50322001  0.54672662    -0.81200
O1393       O  0.08305796  0.49932582  0.55381322    -0.79900
O1394       O  0.04831558  0.91298545  0.50466223    -0.81400
O1395       O  0.44740496  0.91413608  0.50779151    -0.83300
O1396       O  0.08430060  0.94937598  0.49879906    -0.80100
O1397       O  0.41214548  0.95174111  0.50436199    -0.82700
O1398       O  0.05058176  0.49860478  0.91306966    -0.78500
O1399       O  0.04535694  0.50245551  0.58967447    -0.78500
O1400       O  0.44555322  0.50270184  0.58510629    -0.78100
O1401       O  0.45291266  0.49293069  0.91022097    -0.81600
O1402       O  0.99882264  0.90938146  0.95581445    -0.81100
O1403       O  0.99855193  0.91655513  0.55631976    -0.79400
Eu1404     Eu  0.00087331  0.49651553  0.93806384     2.39800
Eu1405     Eu  0.99699517  0.50400243  0.56236996     2.39600
Eu1406     Eu  0.06058952  0.49960192  0.50135274     2.38400
Eu1407     Eu  0.43757493  0.50086351  0.49758454     2.39900
Eu1408     Eu  0.99812777  0.93810209  0.50414621     2.39800
O1409       O  0.46699796  0.97182305  0.53171810    -0.93800
O1410       O  0.03000914  0.96694193  0.97184689    -0.92700
C1411       C  0.00137693  0.91660044  0.92736093     1.01400
C1412       C  0.99960640  0.92690691  0.58401992     1.00100
C1413       C  0.07843945  0.49976276  0.92179781     0.99500
C1414       C  0.42468622  0.49387084  0.91762147     1.01500
C1415       C  0.41792833  0.50269138  0.57518839     1.00400
C1416       C  0.07344842  0.50055554  0.58186648     0.99200
C1417       C  0.07615744  0.92132044  0.50103608     0.99300
C1418       C  0.41964537  0.92362659  0.50803875     1.01900
H1419       H  0.04082661  0.95875194  0.54690071     0.29300
O1420       O  0.02848196  0.97103082  0.53352214    -1.06000
H1421       H  0.45635858  0.95369831  0.95768950     0.31300
O1422       O  0.46878025  0.96725775  0.96982056    -1.08500
O1423       O  0.00025514  0.70324483  0.66203775    -0.81100
O1424       O  0.99899816  0.69708227  0.83704632    -0.82700
O1425       O  0.04952541  0.66235616  0.74631310    -0.79700
O1426       O  0.44979463  0.66311800  0.75077939    -0.78100
O1427       O  0.41325434  0.70012254  0.75069579    -0.79800
O1428       O  0.08658497  0.69864707  0.74943233    -0.80800
O1429       O  0.99980310  0.66122033  0.79878080    -0.82100
O1430       O  0.99967347  0.66465795  0.69737145    -0.82400
Eu1431     Eu  0.99971516  0.68771006  0.74895229     2.39200
O1432       O  0.46889418  0.71814198  0.78069290    -0.89900
O1433       O  0.03025356  0.71979531  0.71891714    -0.93500
C1434       C  0.00006616  0.67480194  0.66966257     1.01200
C1435       C  0.99932022  0.66927566  0.82722268     1.01000
C1436       C  0.07759355  0.67064493  0.74739583     1.00900
C1437       C  0.42188478  0.67185979  0.75080725     0.98800
H1438       H  0.04312946  0.70388311  0.79319771     0.28600
O1439       O  0.03072772  0.71725883  0.78095730    -1.02300
H1440       H  0.45668826  0.70771131  0.70591678     0.28600
O1441       O  0.46932449  0.72013090  0.71899607    -1.04800
O1442       O  0.00182191  0.79635947  0.84049250    -0.82100
O1443       O  0.99841135  0.80399167  0.66657209    -0.81600
O1444       O  0.08549983  0.74597781  0.80121414    -0.80000
O1445       O  0.41344884  0.75163343  0.80016549    -0.83400
O1446       O  0.41429028  0.74899818  0.70030772    -0.81200
O1447       O  0.08613118  0.74742943  0.70057161    -0.79900
O1448       O  0.05207412  0.83616563  0.75369450    -0.81400
O1449       O  0.45234403  0.83835870  0.75235548    -0.83300
O1450       O  0.08819444  0.79877522  0.75127255    -0.80100
O1451       O  0.41502999  0.80216305  0.74952551    -0.82700
O1452       O  0.04945542  0.74549589  0.83795571    -0.78500
O1453       O  0.04992954  0.75392493  0.66447559    -0.78500
O1454       O  0.45036357  0.75257084  0.66377519    -0.78100
O1455       O  0.44958984  0.74864337  0.83669345    -0.81600
O1456       O  0.00292731  0.83494504  0.80524354    -0.81100
O1457       O  0.00203135  0.83924823  0.70502381    -0.79400
Eu1458     Eu  0.99998202  0.74765139  0.81277538     2.39800
Eu1459     Eu  0.99997356  0.75248922  0.68923782     2.39600
Eu1460     Eu  0.06171577  0.74897518  0.75088125     2.38400
Eu1461     Eu  0.43871762  0.75069166  0.75063595     2.39900
Eu1462     Eu  0.00157853  0.81199939  0.75374638     2.39800
O1463       O  0.46993053  0.78283977  0.72145928    -0.93800
O1464       O  0.03173986  0.77935674  0.78345925    -0.92700
C1465       C  0.00274836  0.82475361  0.83290667     1.01400
C1466       C  0.00015587  0.83174114  0.67658198     1.00100
C1467       C  0.07731848  0.74443492  0.82936816     0.99500
C1468       C  0.42171930  0.75093800  0.82830388     1.01500
C1469       C  0.42247611  0.75015687  0.67210259     1.00400
C1470       C  0.07781183  0.75083703  0.67258398     0.99200
C1471       C  0.07989493  0.82707956  0.75225914     0.99300
C1472       C  0.42427799  0.83024244  0.75049483     1.01900
H1473       H  0.04436281  0.79468108  0.70879777     0.29300
O1474       O  0.03160159  0.78176275  0.72116433    -1.06000
H1475       H  0.45742594  0.79310457  0.79606006     0.31300
O1476       O  0.46983160  0.78038785  0.78301690    -1.08500
O1477       O  0.33568139  0.99924993  0.69727174    -0.81100
O1478       O  0.16216764  0.00130674  0.70061752    -0.82700
O1479       O  0.24825826  0.95037429  0.66107968    -0.79700
O1480       O  0.24944386  0.55008409  0.66165338    -0.78100
O1481       O  0.24949560  0.58690870  0.69887883    -0.79800
O1482       O  0.25061324  0.91333268  0.69778847    -0.80800
O1483       O  0.19769836  0.00087493  0.66250793    -0.82100
O1484       O  0.29820219  0.99957697  0.66099616    -0.82400
Eu1485     Eu  0.24864835  0.00013302  0.68669300     2.39200
O1486       O  0.21893567  0.53142590  0.71843184    -0.89900
O1487       O  0.28028307  0.96897070  0.71684544    -0.93500
C1488       C  0.32624662  0.99936498  0.66936906     1.01200
C1489       C  0.16996686  0.00130326  0.67219972     1.01000
C1490       C  0.24939050  0.92230125  0.66972154     1.00900
C1491       C  0.24948799  0.57813954  0.67069016     0.98800
H1492       H  0.20569622  0.95632018  0.70555372     0.28600
O1493       O  0.21865413  0.96892711  0.71814031    -1.02300
H1494       H  0.29302797  0.54342455  0.70451575     0.28600
O1495       O  0.28044906  0.53080407  0.71736155    -1.04800
O1496       O  0.16453003  0.00097215  0.80032394    -0.82100
O1497       O  0.33708302  0.99839856  0.79773601    -0.81600
O1498       O  0.20006459  0.91331836  0.74859849    -0.80000
O1499       O  0.20068860  0.58773131  0.74983660    -0.83400
O1500       O  0.30099625  0.58635093  0.74791594    -0.81200
O1501       O  0.30069205  0.91279685  0.74902826    -0.79900
O1502       O  0.25056946  0.94971469  0.83586956    -0.81400
O1503       O  0.25381579  0.55036029  0.83641108    -0.83300
O1504       O  0.24923971  0.91283966  0.79867875    -0.80100
O1505       O  0.25300975  0.58718054  0.79933752    -0.82700
O1506       O  0.16347920  0.95024785  0.75054315    -0.78500
O1507       O  0.33712795  0.94992110  0.74771163    -0.78500
O1508       O  0.33732525  0.54925676  0.74938277    -0.78100
O1509       O  0.16430126  0.55058935  0.74857441    -0.81600
O1510       O  0.20139895  0.99940949  0.83696744    -0.81100
O1511       O  0.30148026  0.00027528  0.83559934    -0.79400
Eu1512     Eu  0.18882570  0.00036237  0.74985569     2.39800
Eu1513     Eu  0.31155966  0.99962362  0.74787400     2.39600
Eu1514     Eu  0.25030519  0.93790821  0.74844847     2.38400
Eu1515     Eu  0.25054506  0.56209116  0.74909383     2.39900
Eu1516     Eu  0.25120349  0.00010555  0.81111712     2.39800
O1517       O  0.28156316  0.53085779  0.77947944    -0.93800
O1518       O  0.22019915  0.96927616  0.78001097    -0.92700
C1519       C  0.17336488  0.00002890  0.82841644     1.01400
C1520       C  0.32917661  0.99902438  0.82613171     1.00100
C1521       C  0.17213158  0.92209110  0.74975157     0.99500
C1522       C  0.17277846  0.57876511  0.74906888     1.01500
C1523       C  0.32888779  0.57743244  0.74880061     1.00400
C1524       C  0.32864087  0.92176266  0.74865030     0.99200
C1525       C  0.24968064  0.92161047  0.82688967     0.99300
C1526       C  0.25401169  0.57841305  0.82745664     1.01900
H1527       H  0.29405943  0.95595922  0.79204366     0.29300
O1528       O  0.28135344  0.96875902  0.77948876    -1.06000
H1529       H  0.20763176  0.54428001  0.79376399     0.31300
O1530       O  0.21996985  0.53143185  0.78079141    -1.08500
O1531       O  0.20082117  0.66349346  0.00285072    -0.81100
O1532       O  0.19867260  0.83554258  0.99628305    -0.82700
O1533       O  0.16388545  0.74675080  0.54995548    -0.79700
O1534       O  0.16393476  0.75269212  0.95042699    -0.78100
O1535       O  0.19968056  0.74675856  0.91360744    -0.79800
O1536       O  0.20022306  0.75138515  0.58620607    -0.80800
O1537       O  0.16249578  0.79901552  0.00194408    -0.82100
O1538       O  0.16404961  0.69936235  0.99773456    -0.82400
Eu1539     Eu  0.18879830  0.74957642  0.99994514     2.39200
O1540       O  0.21872175  0.78084525  0.96847536    -0.89900
O1541       O  0.21973012  0.71882690  0.53063488    -0.93500
C1542       C  0.17280140  0.67146039  0.00078205     1.01200
C1543       C  0.17076984  0.82707929  0.99886818     1.01000
C1544       C  0.17227094  0.74932049  0.57803182     1.00900
C1545       C  0.17190329  0.74923564  0.92240349     0.98800
H1546       H  0.20635547  0.79356392  0.54352497     0.28600
O1547       O  0.21915790  0.78093852  0.53081402    -1.02300
H1548       H  0.20694790  0.70568200  0.95586452     0.28600
O1549       O  0.21944024  0.71867861  0.96850779    -1.04800
O1550       O  0.29948730  0.83647587  0.00365847    -0.82100
O1551       O  0.30106020  0.66523614  0.99483986    -0.81600
O1552       O  0.25071135  0.80016968  0.58654040    -0.80000
O1553       O  0.24888644  0.80052818  0.91234717    -0.83400
O1554       O  0.25221469  0.69989172  0.91230071    -0.81200
O1555       O  0.24870346  0.70017101  0.58704612    -0.79900
O1556       O  0.33659132  0.75291827  0.54941297    -0.81400
O1557       O  0.33560522  0.74805197  0.95003012    -0.83300
O1558       O  0.30043483  0.74806297  0.58605290    -0.80100
O1559       O  0.29972734  0.75233625  0.91307146    -0.82700
O1560       O  0.24800055  0.83693087  0.54944063    -0.78500
O1561       O  0.25098346  0.66320394  0.54994688    -0.78500
O1562       O  0.25121646  0.66270885  0.94908114    -0.78100
O1563       O  0.25062995  0.83762823  0.94931089    -0.81600
O1564       O  0.33661896  0.80059185  0.99969827    -0.81100
O1565       O  0.33724395  0.70184385  0.00057685    -0.79400
Eu1566     Eu  0.24932607  0.81203489  0.99934202     2.39800
Eu1567     Eu  0.25059771  0.68820868  0.99943332     2.39600
Eu1568     Eu  0.25020758  0.74997751  0.56158902     2.38400
Eu1569     Eu  0.24984458  0.75019189  0.93756803     2.39900
Eu1570     Eu  0.31106489  0.75090596  0.99985219     2.39800
O1571       O  0.28070503  0.71979423  0.96869260    -0.93800
O1572       O  0.28017406  0.78162270  0.53072198    -0.92700
C1573       C  0.32763357  0.82842167  0.00262802     1.01400
C1574       C  0.32890318  0.67391484  0.99701130     1.00100
C1575       C  0.24930792  0.82814359  0.57751423     0.99500
C1576       C  0.24980839  0.82872107  0.92113749     1.01500
C1577       C  0.25222639  0.67174926  0.92100914     1.00400
C1578       C  0.24967626  0.67207958  0.57813707     0.99200
C1579       C  0.32833429  0.75033066  0.57749695     0.99300
C1580       C  0.32749903  0.75024965  0.92191793     1.01900
H1581       H  0.29407668  0.70624683  0.54334747     0.29300
O1582       O  0.28129652  0.71896978  0.53080706    -1.06000
H1583       H  0.29324125  0.79449286  0.95589522     0.31300
O1584       O  0.28057609  0.78161764  0.96841401    -1.08500
C1585       C  0.27137902  0.62573173  0.64801874    -0.02800
C1586       C  0.24961604  0.60209051  0.64698535     0.06900
C1587       C  0.22769229  0.60172004  0.62348319    -0.02900
C1588       C  0.22712903  0.62519555  0.60162324    -0.02900
C1589       C  0.24943283  0.64827297  0.60205447     0.07000
C1590       C  0.27152917  0.64848545  0.62538649    -0.03100
Br1591     Br  0.30291035  0.67923729  0.62587816    -0.01700
Br1592     Br  0.30208765  0.62642442  0.67957130    -0.01700
Br1593     Br  0.19418917  0.62702694  0.57267568    -0.01700
Br1594     Br  0.19741419  0.56985004  0.62172977    -0.01700
C1595       C  0.22694621  0.87515959  0.64657647    -0.02800
C1596       C  0.24893567  0.89857596  0.64568606     0.06900
C1597       C  0.27024787  0.89925462  0.62159277    -0.02900
C1598       C  0.27134656  0.87522775  0.60034134    -0.02900
C1599       C  0.24922896  0.85210077  0.60107597     0.07000
C1600       C  0.22647817  0.85260462  0.62364962    -0.03100
Br1601     Br  0.19329107  0.82395747  0.62170763    -0.01700
Br1602     Br  0.19596689  0.87506252  0.67779468    -0.01700
Br1603     Br  0.30421622  0.87325046  0.57123399    -0.01700
Br1604     Br  0.29775252  0.93308529  0.61678497    -0.01700
C1605       C  0.27140693  0.87420846  0.85036207    -0.02800
C1606       C  0.24944154  0.89764440  0.85076757     0.06900
C1607       C  0.22749482  0.89826270  0.87427554    -0.06900
C1608       C  0.22765094  0.87579382  0.89727357    -0.02900
C1609       C  0.24986286  0.85258676  0.89710598     0.07000
C1610       C  0.27187292  0.85205928  0.87365336    -0.03100
Br1611     Br  0.30399567  0.82214784  0.87432037    -0.01700
Br1612     Br  0.30174438  0.87287499  0.81850347    -0.01700
Br1613     Br  0.19633125  0.87607174  0.92813932    -0.01700
Br1614     Br  0.19585388  0.92872562  0.87402190    -0.01700
C1615       C  0.22842747  0.62123847  0.85475933    -0.02800
C1616       C  0.25414086  0.60246392  0.85118900     0.06900
C1617       C  0.27966261  0.60699341  0.87011898    -0.02900
C1618       C  0.27951653  0.63059342  0.89213267    -0.02900
C1619       C  0.25309543  0.64808898  0.89688483     0.07000
C1620       C  0.22752778  0.64326084  0.87821717    -0.03100
Br1621     Br  0.19089698  0.66626872  0.88535171    -0.01700
Br1622     Br  0.19414709  0.61656363  0.82769414    -0.01700
Br1623     Br  0.31605852  0.64046918  0.91428401    -0.01700
Br1624     Br  0.31513062  0.58161507  0.86529149    -0.01700
C1625       C  0.35032891  0.62651566  0.76952162    -0.02800
C1626       C  0.35290010  0.60129549  0.74946265     0.06900
C1627       C  0.37874822  0.59888450  0.73049097    -0.02900
C1628       C  0.40094329  0.62204810  0.73068029    -0.02900
C1629       C  0.39822597  0.64748275  0.75054056     0.07000
C1630       C  0.37315047  0.64898155  0.77052677    -0.03100
Br1631     Br  0.37121517  0.67996660  0.80167677    -0.01700
Br1632     Br  0.31642410  0.62985278  0.79725377    -0.01700
Br1633     Br  0.43462420  0.61875463  0.70276464    -0.01700
Br1634     Br  0.38382058  0.56439743  0.70322176    -0.01700
C1635       C  0.40085606  0.87926270  0.77045869    -0.02800
C1636       C  0.40087760  0.85486191  0.74920584     0.06900
C1637       C  0.37818664  0.85403167  0.72648859    -0.02900
C1638       C  0.35379513  0.87481318  0.72717313    -0.02900
C1639       C  0.35297275  0.89826324  0.74934418     0.07000
C1640       C  0.37677689  0.90045522  0.77088683    -0.03100
Br1641     Br  0.37565072  0.93129180  0.80253647    -0.01700
Br1642     Br  0.43427749  0.88502418  0.79827404    -0.01700
Br1643     Br  0.32214847  0.87155777  0.69682329    -0.01700
Br1644     Br  0.38338419  0.82803369  0.69134431    -0.01700
C1645       C  0.09867045  0.62022915  0.76547502    -0.02800
C1646       C  0.10126232  0.64634042  0.74668068     0.06900
C1647       C  0.12695999  0.64926255  0.72754456    -0.02900
C1648       C  0.14994319  0.62689393  0.72781423    -0.02900
C1649       C  0.14850028  0.60230169  0.74855551     0.07000
C1650       C  0.12276376  0.59924995  0.76754424    -0.03100
Br1651     Br  0.12079242  0.56719906  0.79782036    -0.01700
Br1652     Br  0.06199628  0.61199172  0.78804687    -0.01700
Br1653     Br  0.18195639  0.62868447  0.69770123    -0.01700
Br1654     Br  0.12981400  0.68244142  0.69878409    -0.01700
C1655       C  0.10168419  0.87536136  0.73017828    -0.02800
C1656       C  0.10385427  0.85105573  0.75124760     0.06900
C1657       C  0.12861242  0.85026110  0.77165390    -0.02900
C1658       C  0.15086105  0.87334857  0.77105986    -0.02900
C1659       C  0.14839103  0.89795203  0.75038873     0.07000
C1660       C  0.12337152  0.89904077  0.73022945    -0.03100
Br1661     Br  0.11886600  0.93240537  0.70181078    -0.01700
Br1662     Br  0.07016955  0.87533255  0.69955954    -0.01700
Br1663     Br  0.18365393  0.87200909  0.80030674    -0.01700
Br1664     Br  0.13145742  0.81856723  0.80188493    -0.01700
C1665       C  0.36735416  0.75477817  0.65516974    -0.02800
C1666       C  0.39827023  0.74878274  0.64781965     0.06900
C1667       C  0.40543545  0.74171847  0.61676329    -0.02900
C1668       C  0.38215360  0.73920777  0.59476630    -0.02900
C1669       C  0.35248906  0.74970777  0.60151464     0.07000
C1670       C  0.34597049  0.75906508  0.63176335    -0.03100
Br1671     Br  0.30893162  0.78069886  0.64175529    -0.01700
Br1672     Br  0.35177618  0.75549662  0.69669100    -0.01700
Br1673     Br  0.39135740  0.71903160  0.55631168    -0.01700
Br1674     Br  0.44659416  0.73481601  0.60257629    -0.01700
C1675       C  0.15563818  0.74895009  0.63396664    -0.02800
C1676       C  0.14820022  0.75037128  0.60237606     0.06900
C1677       C  0.11717613  0.75402713  0.59452059    -0.02900
C1678       C  0.09445971  0.74982352  0.61668868    -0.02900
C1679       C  0.10191196  0.75131562  0.64826597     0.07000
C1680       C  0.13304775  0.75390348  0.65617102    -0.03100
Br1681     Br  0.14624037  0.76826098  0.69598820    -0.01700
Br1682     Br  0.19608063  0.73982455  0.64872666    -0.01700
Br1683     Br  0.05393561  0.74106351  0.60188465    -0.01700
Br1684     Br  0.10449322  0.76996601  0.55527207    -0.01700
C1685       C  0.13253929  0.74632406  0.84518814    -0.02800
C1686       C  0.10161923  0.74212605  0.85326239     0.06900
C1687       C  0.09455456  0.73687041  0.88458518    -0.02900
C1688       C  0.11765616  0.73762740  0.90686433    -0.02900
C1689       C  0.14746083  0.74714417  0.89890178     0.07000
C1690       C  0.15411642  0.75273374  0.86779411    -0.03100
Br1691     Br  0.19158723  0.77196779  0.85490099    -0.01700
Br1692     Br  0.14794071  0.73930647  0.80416843    -0.01700
Br1693     Br  0.10749729  0.72389212  0.94782009    -0.01700
Br1694     Br  0.05400694  0.72610923  0.89822895    -0.01700
C1695       C  0.40494819  0.75790394  0.88378215    -0.02800
C1696       C  0.39761529  0.75267557  0.85245842     0.06900
C1697       C  0.36652014  0.74887707  0.84471031    -0.02900
C1698       C  0.34520355  0.74305531  0.86767224    -0.02900
C1699       C  0.35179011  0.75087365  0.89828651     0.07000
C1700       C  0.38163640  0.76043034  0.90564837    -0.03100
Br1701     Br  0.39125101  0.77946398  0.94459944    -0.01700
Br1702     Br  0.44618724  0.76291249  0.89846434    -0.01700
Br1703     Br  0.30852898  0.72151047  0.85627507    -0.01700
Br1704     Br  0.35035526  0.75584603  0.80409667    -0.01700
C1705       C  0.37840425  0.84800668  0.52185693    -0.02800
C1706       C  0.35104511  0.85293832  0.50549880     0.06900
C1707       C  0.34498099  0.88254397  0.99431872    -0.02900
C1708       C  0.36505476  0.90668577  0.00041557    -0.02900
C1709       C  0.39462184  0.90059366  0.51148285     0.07000
C1710       C  0.40014919  0.87157415  0.52451343    -0.03100
Br1711     Br  0.43507278  0.86528076  0.55054083    -0.01700
Br1712     Br  0.38635008  0.80966069  0.54209053    -0.01700
Br1713     Br  0.34861747  0.94764023  0.99904635    -0.01700
Br1714     Br  0.31057318  0.89055917  0.96808158    -0.01700
C1715       C  0.38115863  0.65569230  0.98155070    -0.02800
C1716       C  0.35274499  0.64993132  0.49548946     0.06900
C1717       C  0.34674615  0.62056987  0.50723742    -0.02900
C1718       C  0.36765342  0.59672117  0.50300321    -0.02900
C1719       C  0.39732849  0.60293254  0.49174027     0.07000
C1720       C  0.40370130  0.63284890  0.98087223    -0.03100
Br1721     Br  0.44266579  0.64333287  0.96335457    -0.01700
Br1722     Br  0.38959522  0.69446066  0.96213943    -0.01700
Br1723     Br  0.35343913  0.55585205  0.51209269    -0.01700
Br1724     Br  0.31110839  0.61302479  0.53218925    -0.01700
C1725       C  0.09376755  0.86683049  0.49024756    -0.02800
C1726       C  0.10056220  0.89730939  0.49933652     0.06900
C1727       C  0.13136075  0.90462061  0.00620756    -0.02900
C1728       C  0.15324836  0.88134649  0.00864255    -0.02900
C1729       C  0.14670373  0.85130580  0.49848267     0.07000
C1730       C  0.11712253  0.84493406  0.48755254    -0.03100
Br1731     Br  0.10851907  0.80742631  0.46574017    -0.01700
Br1732     Br  0.05298919  0.85396941  0.47967905    -0.01700
Br1733     Br  0.19157472  0.89138373  0.02798846    -0.01700
Br1734     Br  0.14589483  0.94624795  0.01098393    -0.01700
C1735       C  0.13447218  0.59301335  0.49897771    -0.02800
C1736       C  0.10335430  0.60060093  0.50364154     0.06900
C1737       C  0.09622490  0.63152139  0.01063256    -0.02900
C1738       C  0.11938135  0.65362748  0.01246668    -0.02900
C1739       C  0.14911949  0.64691593  0.50224961     0.07000
C1740       C  0.15618608  0.61622455  0.49476284    -0.03100
Br1741     Br  0.19502189  0.60482308  0.47723196    -0.01700
Br1742     Br  0.14982084  0.55153338  0.50147416    -0.01700
Br1743     Br  0.11015153  0.69186833  0.03256524    -0.01700
Br1744     Br  0.05530822  0.64482353  0.02009079    -0.01700
C1745       C  0.37556884  0.97454098  0.89535544    -0.02800
C1746       C  0.40183389  0.49265032  0.89237281     0.06900
C1747       C  0.40539132  0.51034246  0.86556155    -0.02900
C1748       C  0.38094507  0.51403285  0.84517420    -0.02900
C1749       C  0.35380177  0.49737060  0.84932544     0.07000
C1750       C  0.35157112  0.97700462  0.87424106    -0.03100
Br1751     Br  0.31647360  0.95097036  0.87900141    -0.01700
Br1752     Br  0.37464133  0.94255196  0.92528363    -0.01700
Br1753     Br  0.38430805  0.54392815  0.81288481    -0.01700
Br1754     Br  0.44411806  0.52773177  0.85458077    -0.01700
C1755       C  0.12701779  0.52103924  0.89909640    -0.02800
C1756       C  0.10228361  0.50057091  0.89716783     0.06900
C1757       C  0.10006912  0.98168208  0.87081597    -0.02900
C1758       C  0.12394546  0.98044291  0.84936448    -0.02900
C1759       C  0.14937641  0.49980315  0.85239706     0.07000
C1760       C  0.15059767  0.52037006  0.87725758    -0.03100
Br1761     Br  0.18365828  0.54917187  0.88063410    -0.01700
Br1762     Br  0.12613686  0.55386486  0.92816947    -0.01700
Br1763     Br  0.12221976  0.95069629  0.81659294    -0.01700
Br1764     Br  0.06363878  0.95898893  0.86176642    -0.01700
C1765       C  0.11830799  0.97589917  0.60710308    -0.02800
C1766       C  0.09640381  0.49929617  0.60686295     0.06900
C1767       C  0.09649548  0.52089003  0.63094411    -0.02900
C1768       C  0.12161340  0.52297622  0.65075171    -0.02900
C1769       C  0.14502494  0.50101011  0.64930397     0.07000
C1770       C  0.14248756  0.97669050  0.62819706    -0.03100
Br1771     Br  0.17055825  0.94301007  0.62985248    -0.01700
Br1772     Br  0.11160164  0.93985606  0.58267892    -0.01700
Br1773     Br  0.12421642  0.55687069  0.67894870    -0.01700
Br1774     Br  0.06086052  0.54468755  0.64004980    -0.01700
C1775       C  0.37592324  0.52760409  0.60498508    -0.02800
C1776       C  0.39340405  0.50150741  0.59831362     0.06900
C1777       C  0.38770501  0.97421492  0.61430878    -0.02900
C1778       C  0.36724051  0.97404712  0.63902580    -0.02900
C1779       C  0.34930891  0.49994740  0.64504500     0.07000
C1780       C  0.35306341  0.52641749  0.62734631    -0.03100
Br1781     Br  0.32742381  0.56137654  0.63437645    -0.01700
Br1782     Br  0.38356480  0.56526821  0.58428448    -0.01700
Br1783     Br  0.36380553  0.93848671  0.66464458    -0.01700
Br1784     Br  0.40519078  0.93645590  0.60011890    -0.01700
C1785       C  0.02650920  0.61026906  0.88406267    -0.02800
C1786       C  0.99894374  0.59744553  0.89388486     0.06900
C1787       C  0.47138489  0.60857195  0.88216212    -0.02900
C1788       C  0.47160934  0.63135585  0.85951050    -0.02900
C1789       C  0.99917807  0.64475935  0.85030704     0.07000
C1790       C  0.02659015  0.63476170  0.86335459    -0.03100
Br1791     Br  0.06409241  0.65539458  0.85397719    -0.01700
Br1792     Br  0.06415309  0.59418163  0.89905672    -0.01700
Br1793     Br  0.43416817  0.64454896  0.84136606    -0.01700
Br1794     Br  0.43340554  0.59363806  0.89813180    -0.01700
C1795       C  0.03013579  0.86041546  0.86810333    -0.02800
C1796       C  0.00276908  0.84730414  0.85791698     0.06900
C1797       C  0.47528345  0.85508443  0.87230923    -0.02900
C1798       C  0.47490926  0.87732500  0.89556173    -0.02900
C1799       C  0.00208408  0.89148294  0.90482995     0.07000
C1800       C  0.02984423  0.88199371  0.89203990    -0.03100
Br1801     Br  0.06745151  0.89686205  0.90893765    -0.01700
Br1802     Br  0.06796822  0.84835119  0.84967483    -0.01700
Br1803     Br  0.43719841  0.88809925  0.91495496    -0.01700
Br1804     Br  0.43810157  0.83528960  0.86007937    -0.01700
C1805       C  0.98373929  0.88371055  0.65829150    -0.02800
C1806       C  0.00085389  0.85681574  0.65378499     0.06900
C1807       C  0.52019760  0.85472666  0.62820989    -0.02900
C1808       C  0.51995961  0.87759968  0.60565614    -0.02900
C1809       C  0.00174748  0.90403451  0.60932584     0.07000
C1810       C  0.98558402  0.90788500  0.63713914    -0.03100
Br1811     Br  0.96700213  0.94635256  0.64801683    -0.01700
Br1812     Br  0.95635328  0.88727277  0.69265141    -0.01700
Br1813     Br  0.54721182  0.87345152  0.57127474    -0.01700
Br1814     Br  0.54940369  0.82198652  0.62541024    -0.01700
C1815       C  0.02957953  0.61854359  0.61066087    -0.02800
C1816       C  0.00251116  0.60947711  0.59612296     0.06900
C1817       C  0.47528176  0.62444291  0.60360322    -0.02900
C1818       C  0.47425493  0.64545517  0.62797351    -0.02900
C1819       C  0.00078359  0.65219767  0.64457084     0.07000
C1820       C  0.02853671  0.63899515  0.63561047    -0.03100
Br1821     Br  0.06507273  0.64910909  0.65751180    -0.01700
Br1822     Br  0.06814287  0.60641857  0.59385151    -0.01700
Br1823     Br  0.43631843  0.66445475  0.63880580    -0.01700
Br1824     Br  0.44007552  0.61816540  0.57854224    -0.01700
O1825       O  0.50027805  0.05658021  0.08395718    -0.81100
O1826       O  0.49911396  0.04593311  0.41074434    -0.82700
O1827       O  0.55111938  0.08532766  0.99747316    -0.79700
O1828       O  0.94952957  0.08737439  0.99563495    -0.78100
O1829       O  0.91332991  0.05074254  0.99154264    -0.79800
O1830       O  0.58659146  0.04858556  0.00402629    -0.80800
O1831       O  0.49962912  0.08477724  0.44602858    -0.82100
O1832       O  0.50209129  0.09138772  0.04501331    -0.82400
Eu1833     Eu  0.49978986  0.06221080  0.99708427     2.39200
O1834       O  0.96983635  0.02979304  0.46640127    -0.89900
O1835       O  0.52909448  0.03226214  0.03018266    -0.93500
C1836       C  0.50206027  0.08418227  0.07355430     1.01200
C1837       C  0.49907024  0.07447239  0.41841392     1.01000
C1838       C  0.57881944  0.07671647  0.00165229     1.00900
C1839       C  0.92161690  0.07888332  0.99271572     0.98800
H1840       H  0.54388192  0.04164322  0.45527880     0.28600
O1841       O  0.53096493  0.02940466  0.46818054    -1.02300
H1842       H  0.95435878  0.04705697  0.04051910     0.28600
O1843       O  0.96723689  0.03355998  0.02880144    -1.04800
O1844       O  0.50312184  0.44413101  0.41691228    -0.82100
O1845       O  0.49920398  0.45558794  0.09097910    -0.81600
O1846       O  0.58676843  0.00022971  0.45029307    -0.80000
O1847       O  0.91490908  0.99634656  0.44548741    -0.83400
O1848       O  0.91014677  0.00324148  0.04673289    -0.81200
O1849       O  0.58305319  0.99934633  0.05382444    -0.79900
O1850       O  0.54832482  0.41300159  0.00468344    -0.81400
O1851       O  0.94740629  0.41414759  0.00781184    -0.83300
O1852       O  0.58431259  0.44938869  0.99882419    -0.80100
O1853       O  0.91214084  0.45174711  0.00437308    -0.82700
O1854       O  0.55057469  0.99860842  0.41305428    -0.78500
O1855       O  0.54535338  0.00248524  0.08968617    -0.78500
O1856       O  0.94555445  0.00272080  0.08511255    -0.78100
O1857       O  0.95291717  0.99292992  0.41020844    -0.81600
O1858       O  0.49882721  0.40938191  0.45579958    -0.81100
O1859       O  0.49856004  0.41656716  0.05633634    -0.79400
Eu1860     Eu  0.50087347  0.99651945  0.43805599     2.39800
Eu1861     Eu  0.49699520  0.00401799  0.06237583     2.39600
Eu1862     Eu  0.56059045  0.99961016  0.00136259     2.38400
Eu1863     Eu  0.93757562  0.00086956  0.99759335     2.39900
Eu1864     Eu  0.49813110  0.43810919  0.00416067     2.39800
O1865       O  0.96699916  0.47183239  0.03173003    -0.93800
O1866       O  0.53000439  0.46694053  0.47183552    -0.92700
C1867       C  0.50139011  0.41660324  0.42734800     1.01400
C1868       C  0.49961708  0.42692350  0.08403479     1.00100
C1869       C  0.57843186  0.99976729  0.42178174     0.99500
C1870       C  0.92469057  0.99385858  0.41760896     1.01500
C1871       C  0.91792977  0.00271402  0.07519426     1.00400
C1872       C  0.57344436  0.00058265  0.08187742     0.99200
C1873       C  0.57616860  0.42133347  0.00106492     0.99300
C1874       C  0.91964515  0.42363401  0.00805562     1.01900
H1875       H  0.54082851  0.45876869  0.04691359     0.29300
O1876       O  0.52848292  0.47104415  0.03353278    -1.06000
H1877       H  0.95635926  0.45369603  0.45767498     0.31300
O1878       O  0.96877945  0.46725526  0.46980783    -1.08500
O1879       O  0.50024338  0.20326652  0.16202798    -0.81100
O1880       O  0.49899132  0.19708695  0.33704513    -0.82700
O1881       O  0.54953100  0.16236344  0.24632038    -0.79700
O1882       O  0.94981598  0.16310440  0.25078510    -0.78100
O1883       O  0.91327013  0.20010335  0.25069732    -0.79800
O1884       O  0.58658445  0.19865976  0.24944813    -0.80800
O1885       O  0.49981312  0.16122516  0.29877999    -0.82100
O1886       O  0.49967750  0.16467720  0.19735992    -0.82400
Eu1887     Eu  0.49972120  0.18771451  0.24894853     2.39200
O1888       O  0.96889169  0.21813787  0.28068811    -0.89900
O1889       O  0.53025002  0.21980689  0.21891215    -0.93500
C1890       C  0.50006130  0.17482375  0.16965162     1.01200
C1891       C  0.49932380  0.16928050  0.32722214     1.01000
C1892       C  0.57759723  0.17065621  0.24741110     1.00900
C1893       C  0.92190590  0.17184253  0.25081363     0.98800
H1894       H  0.54312650  0.20389187  0.29319809     0.28600
O1895       O  0.53072394  0.21726603  0.28095688    -1.02300
H1896       H  0.95668976  0.20771076  0.20591362     0.28600
O1897       O  0.96932396  0.22013185  0.21899343    -1.04800
O1898       O  0.50181797  0.29636195  0.34048614    -0.82100
O1899       O  0.49840099  0.30400805  0.16657880    -0.81600
O1900       O  0.58548575  0.24599850  0.30121834    -0.80000
O1901       O  0.91343680  0.25160154  0.30015977    -0.83400
O1902       O  0.91427294  0.24897316  0.20031211    -0.81200
O1903       O  0.58612597  0.24744137  0.20057398    -0.79900
O1904       O  0.55205806  0.33617202  0.25369793    -0.81400
O1905       O  0.95232788  0.33834877  0.25235391    -0.83300
O1906       O  0.58817974  0.29878420  0.25126818    -0.80100
O1907       O  0.91501486  0.30215147  0.24952039    -0.82700
O1908       O  0.54943719  0.24549034  0.33795502    -0.78500
O1909       O  0.54992272  0.25393965  0.16447969    -0.78500
O1910       O  0.95034672  0.25258984  0.16378284    -0.78100
O1911       O  0.94957889  0.24864058  0.33668763    -0.81600
O1912       O  0.50292688  0.33494762  0.30523784    -0.81100
O1913       O  0.50202190  0.33925935  0.20503476    -0.79400
Eu1914     Eu  0.49997017  0.24765325  0.31277176     2.39800
Eu1915     Eu  0.49996323  0.25250167  0.18923749     2.39600
Eu1916     Eu  0.56170746  0.24898480  0.25088177     2.38400
Eu1917     Eu  0.93870981  0.25068292  0.25063376     2.39900
Eu1918     Eu  0.50156452  0.31199975  0.25374773     2.39800
O1919       O  0.96991547  0.28284203  0.22146092    -0.93800
O1920       O  0.53172758  0.27936093  0.28346003    -0.92700
C1921       C  0.50275044  0.32475580  0.33289981     1.01400
C1922       C  0.50014762  0.33175618  0.17659242     1.00100
C1923       C  0.57730076  0.24444065  0.32937066     0.99500
C1924       C  0.92170726  0.25091471  0.32829809     1.01500
C1925       C  0.92246019  0.25015335  0.17210843     1.00400
C1926       C  0.57780559  0.25085056  0.17258681     0.99200
C1927       C  0.57987936  0.32708751  0.25225877     0.99300
C1928       C  0.92426287  0.33023098  0.25049122     1.01900
H1929       H  0.54435075  0.29469155  0.20880000     0.29300
O1930       O  0.53159086  0.28177094  0.22116549    -1.06000
H1931       H  0.95740773  0.29310156  0.29605992     0.31300
O1932       O  0.96981550  0.28038702  0.28301649    -1.08500
O1933       O  0.83568359  0.49926240  0.19728005    -0.81100
O1934       O  0.66217042  0.50132322  0.20061381    -0.82700
O1935       O  0.74825472  0.45037624  0.16107635    -0.79700
O1936       O  0.74944183  0.05009964  0.16165913    -0.78100
O1937       O  0.74950380  0.08692324  0.19888576    -0.79800
O1938       O  0.75059964  0.41333184  0.19778379    -0.80800
O1939       O  0.69770176  0.50089194  0.16250463    -0.82100
O1940       O  0.79820741  0.49958660  0.16100092    -0.82400
Eu1941     Eu  0.74865058  0.50014041  0.18669019     2.39200
O1942       O  0.71893921  0.03143168  0.21843026    -0.89900
O1943       O  0.78028289  0.46897696  0.21684466    -0.93500
C1944       C  0.82625106  0.49937826  0.16937687     1.01200
C1945       C  0.66997041  0.50132296  0.17219651     1.01000
C1946       C  0.74938077  0.42230173  0.16971759     1.00900
C1947       C  0.74949116  0.07815545  0.17069707     0.98800
H1948       H  0.70569446  0.45632814  0.20554712     0.28600
O1949       O  0.71865370  0.46893324  0.21813419    -1.02300
H1950       H  0.79303063  0.04342941  0.20451663     0.28600
O1951       O  0.78045119  0.03080795  0.21736093    -1.04800
O1952       O  0.66453184  0.50098605  0.30031761    -0.82100
O1953       O  0.83707612  0.49840446  0.29774592    -0.81600
O1954       O  0.70005960  0.41332036  0.24859767    -0.80000
O1955       O  0.70069074  0.08773730  0.24983377    -0.83400
O1956       O  0.80100145  0.08635649  0.24792099    -0.81200
O1957       O  0.80069331  0.41280078  0.24901206    -0.79900
O1958       O  0.75055698  0.44969933  0.33585835    -0.81400
O1959       O  0.75381897  0.05035489  0.33640718    -0.83300
O1960       O  0.74923360  0.41282910  0.29866302    -0.80100
O1961       O  0.75301736  0.08717933  0.29933713    -0.82700
O1962       O  0.66347669  0.45025212  0.25053949    -0.78500
O1963       O  0.83713028  0.44992505  0.24771262    -0.78500
O1964       O  0.83732675  0.04925959  0.24939047    -0.78100
O1965       O  0.66430223  0.05059628  0.24857627    -0.81600
O1966       O  0.70139635  0.49941051  0.33696463    -0.81100
O1967       O  0.80146941  0.50026791  0.33560640    -0.79400
Eu1968     Eu  0.68882656  0.50036840  0.24985092     2.39800
Eu1969     Eu  0.81155926  0.49962615  0.24787913     2.39600
Eu1970     Eu  0.75030247  0.43790946  0.24844078     2.38400
Eu1971     Eu  0.75054874  0.06209540  0.24909376     2.39900
Eu1972     Eu  0.75119945  0.50009881  0.31111491     2.39800
O1973       O  0.78156163  0.03085764  0.27948089    -0.93800
O1974       O  0.72019523  0.46927557  0.28000396    -0.92700
C1975       C  0.67336371  0.50003748  0.32841058     1.01400
C1976       C  0.82916636  0.49902422  0.32614110     1.00100
C1977       C  0.67212663  0.42209397  0.24975065     0.99500
C1978       C  0.67277987  0.07877206  0.24906961     1.01500
C1979       C  0.82889245  0.07743617  0.24880792     1.00400
C1980       C  0.82864266  0.42176641  0.24864108     0.99200
C1981       C  0.74966958  0.42159545  0.32687497     0.99300
C1982       C  0.75401847  0.07840832  0.32745474     1.01900
H1983       H  0.79405705  0.45595360  0.29204140     0.29300
O1984       O  0.78135191  0.46875478  0.27948697    -1.06000
H1985       H  0.70763617  0.04428202  0.29376225     0.31300
O1986       O  0.71997342  0.03143345  0.28078927    -1.08500
O1987       O  0.70081673  0.16349066  0.50286891    -0.81100
O1988       O  0.69865755  0.33553461  0.49626860    -0.82700
O1989       O  0.66387818  0.24675581  0.04995157    -0.79700
O1990       O  0.66392088  0.25266239  0.45042768    -0.78100
O1991       O  0.69966634  0.24674528  0.41360513    -0.79800
O1992       O  0.70021721  0.25138874  0.08620084    -0.80800
O1993       O  0.66247823  0.29900583  0.50191483    -0.82100
O1994       O  0.66404011  0.19935460  0.49775275    -0.82400
Eu1995     Eu  0.68879056  0.24956805  0.49994452     2.39200
O1996       O  0.71871056  0.28083743  0.46847285    -0.89900
O1997       O  0.71973302  0.21882745  0.03063519    -0.93500
C1998       C  0.67279575  0.17145418  0.50080305     1.01200
C1999       C  0.67075398  0.32706999  0.49884147     1.01000
C2000       C  0.67226378  0.24932592  0.07802794     1.00900
C2001       C  0.67188845  0.24921311  0.42240298     0.98800
H2002       H  0.70636722  0.29356947  0.04352936     0.28600
O2003       O  0.71916753  0.28094368  0.03081665    -1.02300
H2004       H  0.70693996  0.20566644  0.45586739     0.28600
O2005       O  0.71943166  0.21866558  0.46850875    -1.04800
O2006       O  0.79946796  0.33648276  0.50365569    -0.82100
O2007       O  0.80105423  0.16521994  0.49486721    -0.81600
O2008       O  0.75072261  0.30016950  0.08653972    -0.80000
O2009       O  0.74887346  0.30051561  0.41234140    -0.83400
O2010       O  0.75221842  0.19987941  0.41230359    -0.81200
O2011       O  0.74870712  0.20017297  0.08704373    -0.79900
O2012       O  0.83659342  0.25292272  0.04941266    -0.81400
O2013       O  0.83558989  0.24805474  0.45002052    -0.83300
O2014       O  0.80043603  0.24806000  0.08605161    -0.80100
O2015       O  0.79970918  0.25232757  0.41306204    -0.82700
O2016       O  0.74802488  0.33693364  0.04944157    -0.78500
O2017       O  0.75099149  0.16320754  0.04994248    -0.78500
O2018       O  0.75122520  0.16269866  0.44908605    -0.78100
O2019       O  0.75061952  0.33761813  0.44930269    -0.81600
O2020       O  0.83660259  0.30059966  0.49970440    -0.81100
O2021       O  0.83723075  0.20183647  0.50059575    -0.79400
Eu2022     Eu  0.74931231  0.31203162  0.49933875     2.39800
Eu2023     Eu  0.75059449  0.18820273  0.49943816     2.39600
Eu2024     Eu  0.75020962  0.24997759  0.06158951     2.38400
Eu2025     Eu  0.74983231  0.25018128  0.43756699     2.39900
Eu2026     Eu  0.81105896  0.25090548  0.49985182     2.39800
O2027       O  0.78069794  0.21979047  0.46869515    -0.93800
O2028       O  0.78018220  0.28162073  0.03072614    -0.92700
C2029       C  0.82761468  0.32842967  0.50263074     1.01400
C2030       C  0.82889545  0.17390399  0.49704108     1.00100
C2031       C  0.74932708  0.32814398  0.07751403     0.99500
C2032       C  0.74979675  0.32870919  0.42112972     1.01500
C2033       C  0.75223652  0.17173733  0.42101330     1.00400
C2034       C  0.74968322  0.17208261  0.07813292     0.99200
C2035       C  0.82833501  0.25033246  0.07749532     0.99300
C2036       C  0.82748129  0.25024635  0.42190755     1.01900
H2037       H  0.79408102  0.20624577  0.04334551     0.29300
O2038       O  0.78130065  0.21897038  0.03080692    -1.06000
H2039       H  0.79322645  0.29448552  0.45589323     0.31300
O2040       O  0.78056241  0.28161041  0.46841324    -1.08500
C2041       C  0.77138473  0.12574625  0.14802008    -0.02800
C2042       C  0.74961757  0.10210795  0.14699315     0.06900
C2043       C  0.72768898  0.10173960  0.12349550    -0.02900
C2044       C  0.72712907  0.12520963  0.10162990    -0.02900
C2045       C  0.74944157  0.14827781  0.10205025     0.07000
C2046       C  0.77154220  0.14848983  0.12537761    -0.03100
Br2047     Br  0.80294100  0.17922436  0.12584430    -0.01700
Br2048     Br  0.80208455  0.12645337  0.17958075    -0.01700
Br2049     Br  0.69418473  0.12704645  0.07268760    -0.01700
Br2050     Br  0.69739633  0.06988340  0.12175954    -0.01700
C2051       C  0.72693358  0.37516683  0.14655652    -0.02800
C2052       C  0.74893227  0.39857561  0.14568251     0.06900
C2053       C  0.77026925  0.39924088  0.12161141    -0.02900
C2054       C  0.77137186  0.37521597  0.10035775    -0.02900
C2055       C  0.74924357  0.35209916  0.10107540     0.07000
C2056       C  0.72647510  0.35261173  0.12362983    -0.03100
Br2057     Br  0.69327971  0.32397494  0.12165908    -0.01700
Br2058     Br  0.69593801  0.37507221  0.17775747    -0.01700
Br2059     Br  0.80425663  0.37322799  0.07126784    -0.01700
Br2060     Br  0.79781278  0.43304529  0.11684837    -0.01700
C2061       C  0.77138627  0.37418352  0.35034228    -0.02800
C2062       C  0.74942531  0.39762447  0.35074948     0.06900
C2063       C  0.72747908  0.39824437  0.37425811    -0.06900
C2064       C  0.72763897  0.37578067  0.39726163    -0.02900
C2065       C  0.74985062  0.35257337  0.39709594     0.07000
C2066       C  0.77185799  0.35204200  0.37364109    -0.03100
Br2067     Br  0.80399219  0.32214339  0.37432262    -0.01700
Br2068     Br  0.80170510  0.37282502  0.31846659    -0.01700
Br2069     Br  0.69633082  0.37607190  0.42813908    -0.01700
Br2070     Br  0.69582876  0.42869729  0.37399318    -0.01700
C2071       C  0.72843097  0.12121998  0.35477107    -0.02800
C2072       C  0.75414970  0.10245643  0.35118806     0.06900
C2073       C  0.77967895  0.10699486  0.37010452    -0.02900
C2074       C  0.77953265  0.13059011  0.39212375    -0.02900
C2075       C  0.75310683  0.14807642  0.39688856     0.07000
C2076       C  0.72753398  0.14324155  0.37822932    -0.03100
Br2077     Br  0.69090020  0.16624142  0.38537313    -0.01700
Br2078     Br  0.69414101  0.11653187  0.32772014    -0.01700
Br2079     Br  0.81607903  0.14046942  0.41426557    -0.01700
Br2080     Br  0.81515630  0.08163520  0.36524720    -0.01700
C2081       C  0.85034063  0.12652200  0.26952312    -0.02800
C2082       C  0.85290941  0.10129561  0.24947015     0.06900
C2083       C  0.87876403  0.09887142  0.23050747    -0.02900
C2084       C  0.90096564  0.12202827  0.23069758    -0.02900
C2085       C  0.89825113  0.14746489  0.25055473     0.07000
C2086       C  0.87317572  0.14897292  0.27053898    -0.03100
Br2087     Br  0.87126191  0.17994894  0.30170194    -0.01700
Br2088     Br  0.81641439  0.12989941  0.29722329    -0.01700
Br2089     Br  0.93465132  0.11872382  0.20278752    -0.01700
Br2090     Br  0.88383505  0.06437972  0.20324333    -0.01700
C2091       C  0.90083901  0.37924134  0.27046733    -0.02800
C2092       C  0.90086605  0.35485177  0.24920236     0.06900
C2093       C  0.87819360  0.35404208  0.22646658    -0.02900
C2094       C  0.85380687  0.37482965  0.22714627    -0.02900
C2095       C  0.85297418  0.39826604  0.24933201     0.07000
C2096       C  0.87676789  0.40044311  0.27088845    -0.03100
Br2097     Br  0.87564265  0.43127611  0.30254137    -0.01700
Br2098     Br  0.93424395  0.38497123  0.29831067    -0.01700
Br2099     Br  0.82218543  0.37160631  0.19676687    -0.01700
Br2100     Br  0.88341825  0.32806909  0.19130749    -0.01700
C2101       C  0.59867807  0.12024385  0.26549482    -0.02800
C2102       C  0.60126798  0.14635446  0.24669952     0.06900
C2103       C  0.62695962  0.14927324  0.22755569    -0.02900
C2104       C  0.64993916  0.12690058  0.22781711    -0.02900
C2105       C  0.64850149  0.10230990  0.24856093     0.07000
C2106       C  0.62276936  0.09926120  0.26755685    -0.03100
Br2107     Br  0.62079767  0.06720565  0.29782763    -0.01700
Br2108     Br  0.56200729  0.11201122  0.28807448    -0.01700
Br2109     Br  0.68193310  0.12867783  0.19768333    -0.01700
Br2110     Br  0.62980605  0.18245187  0.19879395    -0.01700
C2111       C  0.60166561  0.37537492  0.23018697    -0.02800
C2112       C  0.60383978  0.35106254  0.25124757     0.06900
C2113       C  0.62860965  0.35025305  0.27163866    -0.02900
C2114       C  0.65085785  0.37334151  0.27104848    -0.02900
C2115       C  0.64838324  0.39795469  0.25038816     0.07000
C2116       C  0.62335825  0.39904997  0.23023523    -0.03100
Br2117     Br  0.61885606  0.43241330  0.20181458    -0.01700
Br2118     Br  0.57014239  0.37535515  0.19957717    -0.01700
Br2119     Br  0.68365822  0.37198479  0.30028509    -0.01700
Br2120     Br  0.63147989  0.31852735  0.30183571    -0.01700
C2121       C  0.86734507  0.25480121  0.15516567    -0.02800
C2122       C  0.89825774  0.24878002  0.14782379     0.06900
C2123       C  0.90542549  0.24169657  0.11677266    -0.02900
C2124       C  0.88214780  0.23919658  0.09477038    -0.02900
C2125       C  0.85248761  0.24971272  0.10151192     0.07000
C2126       C  0.84596878  0.25908937  0.13175362    -0.03100
Br2127     Br  0.80894279  0.28075652  0.14172231    -0.01700
Br2128     Br  0.85176220  0.25555789  0.19668363    -0.01700
Br2129     Br  0.89135116  0.21902200  0.05631447    -0.01700
Br2130     Br  0.94658270  0.23474842  0.10260397    -0.01700
C2131       C  0.65563110  0.24896039  0.13396453    -0.02800
C2132       C  0.64819245  0.25037870  0.10237392     0.06900
C2133       C  0.61716750  0.25403492  0.09452075    -0.02900
C2134       C  0.59445146  0.24983372  0.11669046    -0.02900
C2135       C  0.60190500  0.25132776  0.14826726     0.07000
C2136       C  0.63304139  0.25391552  0.15617001    -0.03100
Br2137     Br  0.64623543  0.26827790  0.19598473    -0.01700
Br2138     Br  0.69607461  0.23983881  0.14872290    -0.01700
Br2139     Br  0.55392503  0.24107761  0.10188990    -0.01700
Br2140     Br  0.60448385  0.26997918  0.05527574    -0.01700
C2141       C  0.63251921  0.24629910  0.34519097    -0.02800
C2142       C  0.60159751  0.24212356  0.35326680     0.06900
C2143       C  0.59453055  0.23687910  0.38459140    -0.02900
C2144       C  0.61763667  0.23761529  0.40686666    -0.02900
C2145       C  0.64744405  0.24712278  0.39890231     0.07000
C2146       C  0.65409759  0.25271054  0.36779399    -0.03100
Br2147     Br  0.69156152  0.27195106  0.35489440    -0.01700
Br2148     Br  0.64791925  0.23923949  0.30417811    -0.01700
Br2149     Br  0.60748076  0.22386189  0.44781679    -0.01700
Br2150     Br  0.55397264  0.22616953  0.39824628    -0.01700
C2151       C  0.90493472  0.25784935  0.38377974    -0.02800
C2152       C  0.89760252  0.25264349  0.35245197     0.06900
C2153       C  0.86650543  0.24886615  0.34469941    -0.02900
C2154       C  0.84518440  0.24304968  0.36765880    -0.02900
C2155       C  0.85177043  0.25086661  0.39827395     0.07000
C2156       C  0.88161989  0.26040847  0.40563728    -0.03100
Br2157     Br  0.89123402  0.27947735  0.44457035    -0.01700
Br2158     Br  0.94617565  0.26275591  0.39848920    -0.01700
Br2159     Br  0.80850940  0.22150952  0.35625675    -0.01700
Br2160     Br  0.85034723  0.25584071  0.30408362    -0.01700
C2161       C  0.87843042  0.34799588  0.02184568    -0.02800
C2162       C  0.85106706  0.35292700  0.00549375     0.06900
C2163       C  0.84497083  0.38254893  0.49430740    -0.02900
C2164       C  0.86505285  0.40668748  0.50039152    -0.02900
C2165       C  0.89462666  0.40059518  0.01149921     0.07000
C2166       C  0.90016346  0.37157279  0.02451878    -0.03100
Br2167     Br  0.93507750  0.36529043  0.05056175    -0.01700
Br2168     Br  0.88640466  0.30963496  0.04204014    -0.01700
Br2169     Br  0.84863333  0.44764849  0.49898006    -0.01700
Br2170     Br  0.81056296  0.39056191  0.46806991    -0.01700
C2171       C  0.88115395  0.15568539  0.48158529    -0.02800
C2172       C  0.85274838  0.14993813  0.99545511     0.06900
C2173       C  0.84674193  0.12057466  0.00719194    -0.02900
C2174       C  0.86764148  0.09672253  0.00294527    -0.02900
C2175       C  0.89732738  0.10293604  0.99171167     0.07000
C2176       C  0.90369237  0.13283814  0.48088922    -0.03100
Br2177     Br  0.94263569  0.14330177  0.46331296    -0.01700
Br2178     Br  0.88959607  0.19446305  0.46219357    -0.01700
Br2179     Br  0.85339430  0.05584931  0.01196396    -0.01700
Br2180     Br  0.81110553  0.11302889  0.03214553    -0.01700
C2181       C  0.59377256  0.36683065  0.99032082    -0.02800
C2182       C  0.60057313  0.39731845  0.99937748     0.06900
C2183       C  0.63134562  0.40460784  0.50618792    -0.02900
C2184       C  0.65322783  0.38133080  0.50863100    -0.02900
C2185       C  0.64671767  0.35131391  0.99851882     0.07000
C2186       C  0.61712573  0.34493283  0.98762289    -0.03100
Br2187     Br  0.60849641  0.30740333  0.96585726    -0.01700
Br2188     Br  0.55298443  0.35394957  0.97981198    -0.01700
Br2189     Br  0.69153444  0.39135298  0.52802240    -0.01700
Br2190     Br  0.64588180  0.44623293  0.51097457    -0.01700
C2191       C  0.63447467  0.09301885  0.99898364    -0.02800
C2192       C  0.60335580  0.10060976  0.00363524     0.06900
C2193       C  0.59622707  0.13150365  0.51066415    -0.02900
C2194       C  0.61938169  0.15361147  0.51249925    -0.02900
C2195       C  0.64912421  0.14692211  0.00223282     0.07000
C2196       C  0.65618988  0.11622711  0.99475951    -0.03100
Br2197     Br  0.69502498  0.10481512  0.97723408    -0.01700
Br2198     Br  0.64982298  0.05154097  0.00151440    -0.01700
Br2199     Br  0.61015414  0.19184578  0.53261051    -0.01700
Br2200     Br  0.55531241  0.14479529  0.52014652    -0.01700
C2201       C  0.87557742  0.47451310  0.39534092    -0.02800
C2202       C  0.90183925  0.99263540  0.39236021     0.06900
C2203       C  0.90538674  0.01034186  0.36555769    -0.02900
C2204       C  0.88093228  0.01404489  0.34518371    -0.02900
C2205       C  0.85379443  0.99737365  0.34933119     0.07000
C2206       C  0.85156906  0.47699061  0.37424050    -0.03100
Br2207     Br  0.81646600  0.45096637  0.37901250    -0.01700
Br2208     Br  0.87468294  0.44248572  0.42522907    -0.01700
Br2209     Br  0.88427127  0.04397741  0.31292694    -0.01700
Br2210     Br  0.94411291  0.02772251  0.35456236    -0.01700
C2211       C  0.62701101  0.02104691  0.39908709    -0.02800
C2212       C  0.60227486  0.00058229  0.39715044     0.06900
C2213       C  0.60005163  0.48170737  0.37078378    -0.02900
C2214       C  0.62393438  0.48046325  0.34934044    -0.02900
C2215       C  0.64937622  0.99981557  0.35238997     0.07000
C2216       C  0.65059582  0.02037775  0.37725416    -0.03100
Br2217     Br  0.68366036  0.04917296  0.38064449    -0.01700
Br2218     Br  0.62611940  0.05387629  0.42815404    -0.01700
Br2219     Br  0.62220624  0.45072542  0.31656060    -0.01700
Br2220     Br  0.56360286  0.45905996  0.36169484    -0.01700
C2221       C  0.61830172  0.47592516  0.10710882    -0.02800
C2222       C  0.59640089  0.99932434  0.10687165     0.06900
C2223       C  0.59649875  0.02092229  0.13094906    -0.02900
C2224       C  0.62161785  0.02300472  0.15075531    -0.02900
C2225       C  0.64502678  0.00103591  0.14930504     0.07000
C2226       C  0.64248637  0.47671640  0.12819592    -0.03100
Br2227     Br  0.67056064  0.44303834  0.12983967    -0.01700
Br2228     Br  0.61158341  0.43987802  0.08269349    -0.01700
Br2229     Br  0.62422787  0.05689895  0.17895196    -0.01700
Br2230     Br  0.56087364  0.04473821  0.14004591    -0.01700
C2231       C  0.87589022  0.02761055  0.10495656    -0.02800
C2232       C  0.89340556  0.00152897  0.09831828     0.06900
C2233       C  0.88773964  0.47424618  0.11434560    -0.02900
C2234       C  0.86727497  0.47407917  0.13906148    -0.02900
C2235       C  0.84931339  0.99996702  0.14505081     0.07000
C2236       C  0.85303826  0.02642421  0.12732597    -0.03100
Br2237     Br  0.82737461  0.06137044  0.13433661    -0.01700
Br2238     Br  0.88346214  0.06525053  0.08418714    -0.01700
Br2239     Br  0.86387750  0.43853693  0.16471001    -0.01700
Br2240     Br  0.90526052  0.43649191  0.10018662    -0.01700
C2241       C  0.52652540  0.11031619  0.38410200    -0.02800
C2242       C  0.49896434  0.09746539  0.39390226     0.06900
C2243       C  0.97140418  0.10856540  0.38215809    -0.02900
C2244       C  0.97162421  0.13134507  0.35950257    -0.02900
C2245       C  0.49918825  0.14476597  0.35030905     0.07000
C2246       C  0.52660039  0.13479593  0.36337802    -0.03100
Br2247     Br  0.56409482  0.15544366  0.35399948    -0.01700
Br2248     Br  0.56417126  0.09428963  0.39915374    -0.01700
Br2249     Br  0.93418238  0.14450957  0.34134159    -0.01700
Br2250     Br  0.93342735  0.09360782  0.39811217    -0.01700
C2251       C  0.53014204  0.36046173  0.36804598    -0.02800
C2252       C  0.50277879  0.34730649  0.35790758     0.06900
C2253       C  0.97530380  0.35504736  0.37234114    -0.02900
C2254       C  0.97493367  0.37728379  0.39559671    -0.02900
C2255       C  0.50210137  0.39148609  0.40481739     0.07000
C2256       C  0.52985600  0.38203833  0.39198371    -0.03100
Br2257     Br  0.56746808  0.39694376  0.40883733    -0.01700
Br2258     Br  0.56796259  0.34846072  0.34954929    -0.01700
Br2259     Br  0.93723841  0.38798898  0.41505978    -0.01700
Br2260     Br  0.93812774  0.33521780  0.36014890    -0.01700
C2261       C  0.48375049  0.38373467  0.15830999    -0.02800
C2262       C  0.50085423  0.35683360  0.15379968     0.06900
C2263       C  0.02020156  0.35474319  0.12822833    -0.02900
C2264       C  0.01996707  0.37761532  0.10567385    -0.02900
C2265       C  0.50176206  0.40405484  0.10934442     0.07000
C2266       C  0.48560795  0.40791221  0.13716246    -0.03100
Br2267     Br  0.46706777  0.44639471  0.14805968    -0.01700
Br2268     Br  0.45636316  0.38730262  0.19266832    -0.01700
Br2269     Br  0.04721675  0.37345956  0.07129210    -0.01700
Br2270     Br  0.04941059  0.32200453  0.12543880    -0.01700
C2271       C  0.52956981  0.11858123  0.11063520    -0.02800
C2272       C  0.50249698  0.10949491  0.09611751     0.06900
C2273       C  0.97526019  0.12443531  0.10362356    -0.02900
C2274       C  0.97423909  0.14545768  0.12798509    -0.02900
C2275       C  0.50077617  0.15222215  0.14455906     0.07000
C2276       C  0.52853109  0.13903603  0.13558205    -0.03100
Br2277     Br  0.56507380  0.14917312  0.15746174    -0.01700
Br2278     Br  0.56813034  0.10645949  0.09381749    -0.01700
Br2279     Br  0.93630019  0.16444126  0.13883849    -0.01700
Br2280     Br  0.94002601  0.11809344  0.07862125    -0.01700
O2281       O  0.50028900  0.05656142  0.58396004    -0.81100
O2282       O  0.49910348  0.04591659  0.91073666    -0.82700
O2283       O  0.55112107  0.08531773  0.49748052    -0.79700
O2284       O  0.94953144  0.08737112  0.49565401    -0.78100
O2285       O  0.91333177  0.05073947  0.49154125    -0.79800
O2286       O  0.58659278  0.04857440  0.50402972    -0.80800
O2287       O  0.49960976  0.08476737  0.94601361    -0.82100
O2288       O  0.50210217  0.09137260  0.54501992    -0.82400
Eu2289     Eu  0.49979124  0.06220334  0.49708878     2.39200
O2290       O  0.96983775  0.02979118  0.96640608    -0.89900
O2291       O  0.52909581  0.03224898  0.53018118    -0.93500
C2292       C  0.50207337  0.08416463  0.57355987     1.01200
C2293       C  0.49905052  0.07445680  0.91840064     1.01000
C2294       C  0.57882081  0.07670556  0.50165887     1.00900
C2295       C  0.92161874  0.07887995  0.49273129     0.98800
H2296       H  0.54388151  0.04164462  0.95527837     0.28600
O2297       O  0.53096529  0.02940771  0.96818249    -1.02300
H2298       H  0.95435867  0.04704259  0.54051965     0.28600
O2299       O  0.96723668  0.03354772  0.52879941    -1.04800
O2300       O  0.50310671  0.44412644  0.91692325    -0.82100
O2301       O  0.49919661  0.45557060  0.59096929    -0.81600
O2302       O  0.58677694  0.00022871  0.95030992    -0.80000
O2303       O  0.91490774  0.99636592  0.94549815    -0.83400
O2304       O  0.91014588  0.00321963  0.54672577    -0.81200
O2305       O  0.58305762  0.99932448  0.55381462    -0.79900
O2306       O  0.54831621  0.41298573  0.50466152    -0.81400
O2307       O  0.94740514  0.41413600  0.50779140    -0.83300
O2308       O  0.58430102  0.44937652  0.49879728    -0.80100
O2309       O  0.91214526  0.45174081  0.50436226    -0.82700
O2310       O  0.55058350  0.99860508  0.91307065    -0.78500
O2311       O  0.54535633  0.00245415  0.58967545    -0.78500
O2312       O  0.94555342  0.00270226  0.58510594    -0.78100
O2313       O  0.95291466  0.99293126  0.91022005    -0.81600
O2314       O  0.49882243  0.40938107  0.95581514    -0.81100
O2315       O  0.49855293  0.41655550  0.55632001    -0.79400
Eu2316     Eu  0.50087461  0.99651539  0.93806409     2.39800
Eu2317     Eu  0.49699533  0.00400202  0.56237006     2.39600
Eu2318     Eu  0.56058990  0.99960107  0.50135374     2.38400
Eu2319     Eu  0.93757553  0.00086359  0.49758381     2.39900
Eu2320     Eu  0.49812806  0.43810221  0.50414635     2.39800
O2321       O  0.96699791  0.47182312  0.53171836    -0.93800
O2322       O  0.53000850  0.46694234  0.97184643    -0.92700
C2323       C  0.50137628  0.41659986  0.92736157     1.01400
C2324       C  0.49960750  0.42690742  0.58402012     1.00100
C2325       C  0.57844109  0.99976331  0.92179914     0.99500
C2326       C  0.92468815  0.99387191  0.91762011     1.01500
C2327       C  0.91792876  0.00269144  0.57518759     1.00400
C2328       C  0.57344784  0.00055403  0.58186780     0.99200
C2329       C  0.57615799  0.42132089  0.50103468     0.99300
C2330       C  0.91964543  0.42362630  0.50803856     1.01900
H2331       H  0.54082709  0.45875271  0.54690008     0.29300
O2332       O  0.52848219  0.47103144  0.53352163    -1.06000
H2333       H  0.95635818  0.45369833  0.95769032     0.31300
O2334       O  0.96877982  0.46725797  0.96982117    -1.08500
O2335       O  0.50025480  0.20324556  0.66203798    -0.81100
O2336       O  0.49899678  0.19708140  0.83704628    -0.82700
O2337       O  0.54952453  0.16235653  0.74631171    -0.79700
O2338       O  0.94979355  0.16311830  0.75077871    -0.78100
O2339       O  0.91325329  0.20012282  0.75069601    -0.79800
O2340       O  0.58658438  0.19864715  0.74943047    -0.80800
O2341       O  0.49980148  0.16121978  0.79878043    -0.82100
O2342       O  0.49967239  0.16465863  0.69737161    -0.82400
Eu2343     Eu  0.49971416  0.18771025  0.74895245     2.39200
O2344       O  0.96889372  0.21814206  0.78069344    -0.89900
O2345       O  0.53025265  0.21979580  0.71891782    -0.93500
C2346       C  0.50006557  0.17480265  0.66966278     1.01200
C2347       C  0.49931846  0.16927485  0.82722237     1.01000
C2348       C  0.57759279  0.17064506  0.74739375     1.00900
C2349       C  0.92188367  0.17186009  0.75080689     0.98800
H2350       H  0.54312897  0.20388255  0.79319780     0.28600
O2351       O  0.53072720  0.21725851  0.78095767    -1.02300
H2352       H  0.95668744  0.20771180  0.70591678     0.28600
O2353       O  0.96932369  0.22013128  0.71899615    -1.04800
O2354       O  0.50182121  0.29635953  0.84049274    -0.82100
O2355       O  0.49841135  0.30399226  0.66657266    -0.81600
O2356       O  0.58550046  0.24597676  0.80121445    -0.80000
O2357       O  0.91344797  0.25163274  0.80016584    -0.83400
O2358       O  0.91428944  0.24899895  0.70030866    -0.81200
O2359       O  0.58613056  0.24742948  0.70057247    -0.79900
O2360       O  0.55207206  0.33616672  0.75369438    -0.81400
O2361       O  0.95234189  0.33835815  0.75235629    -0.83300
O2362       O  0.58819228  0.29877620  0.75127191    -0.80100
O2363       O  0.91502824  0.30216209  0.74952646    -0.82700
O2364       O  0.54945612  0.24549437  0.83795615    -0.78500
O2365       O  0.54992937  0.25392538  0.66447610    -0.78500
O2366       O  0.95036289  0.25257163  0.66377634    -0.78100
O2367       O  0.94958928  0.24864361  0.83669357    -0.81600
O2368       O  0.50292528  0.33494519  0.80524379    -0.81100
O2369       O  0.50202991  0.33924889  0.70502442    -0.79400
Eu2370     Eu  0.49998196  0.24765107  0.81277611     2.39800
Eu2371     Eu  0.49997306  0.25248976  0.68923838     2.39600
Eu2372     Eu  0.56171507  0.24897534  0.75088193     2.38400
Eu2373     Eu  0.93871694  0.25069155  0.75063660     2.39900
Eu2374     Eu  0.50157702  0.31199956  0.75374690     2.39800
O2375       O  0.96992938  0.28284002  0.72145971    -0.93800
O2376       O  0.53173908  0.27935707  0.78345984    -0.92700
C2377       C  0.50274678  0.32475372  0.83290685     1.01400
C2378       C  0.50015534  0.33174177  0.67658250     1.00100
C2379       C  0.57731927  0.24443335  0.82936856     0.99500
C2380       C  0.92171864  0.25093781  0.82830415     1.01500
C2381       C  0.92247543  0.25015766  0.67210361     1.00400
C2382       C  0.57781162  0.25083725  0.67258478     0.99200
C2383       C  0.57989280  0.32708056  0.75225850     0.99300
C2384       C  0.92427593  0.33024152  0.75049567     1.01900
H2385       H  0.54436181  0.29468146  0.70879866     0.29300
O2386       O  0.53160067  0.28176306  0.72116524    -1.06000
H2387       H  0.95742517  0.29310409  0.79606086     0.31300
O2388       O  0.96983095  0.28038749  0.78301767    -1.08500
O2389       O  0.83568220  0.49924870  0.69727407    -0.81100
O2390       O  0.66216834  0.50130585  0.70061597    -0.82700
O2391       O  0.74825865  0.45037503  0.66107975    -0.79700
O2392       O  0.74944288  0.05008318  0.66165227    -0.78100
O2393       O  0.74949530  0.08690789  0.69887764    -0.79800
O2394       O  0.75061226  0.41333330  0.69778848    -0.80800
O2395       O  0.69769954  0.50087481  0.66250684    -0.82100
O2396       O  0.79820324  0.49957599  0.66099824    -0.82400
Eu2397     Eu  0.74864880  0.50013341  0.68669360     2.39200
O2398       O  0.71893533  0.03142515  0.71843138    -0.89900
O2399       O  0.78028261  0.46897087  0.71684659    -0.93500
C2400       C  0.82624757  0.49936367  0.66937137     1.01200
C2401       C  0.66996790  0.50130264  0.67219824     1.01000
C2402       C  0.74939018  0.42230196  0.66972158     1.00900
C2403       C  0.74948742  0.07813864  0.67068903     0.98800
H2404       H  0.70569605  0.45632031  0.70555313     0.28600
O2405       O  0.71865386  0.46892717  0.71813990    -1.02300
H2406       H  0.79302717  0.04342446  0.70451431     0.28600
O2407       O  0.78044855  0.03080394  0.71736033    -1.04800
O2408       O  0.66452819  0.50097111  0.80032226    -0.82100
O2409       O  0.83708132  0.49839715  0.79773829    -0.81600
O2410       O  0.70006399  0.41331777  0.74859853    -0.80000
O2411       O  0.70068783  0.08773079  0.74983498    -0.83400
O2412       O  0.80099533  0.08635084  0.74791400    -0.81200
O2413       O  0.80068993  0.41279559  0.74902750    -0.79900
O2414       O  0.75056694  0.44971440  0.83587025    -0.81400
O2415       O  0.75381573  0.05036140  0.83640987    -0.83300
O2416       O  0.74923703  0.41283980  0.79867912    -0.80100
O2417       O  0.75300883  0.08718117  0.79933588    -0.82700
O2418       O  0.66347896  0.45024753  0.75054284    -0.78500
O2419       O  0.83712622  0.44991955  0.74771220    -0.78500
O2420       O  0.83732494  0.04925728  0.74938047    -0.78100
O2421       O  0.66430063  0.05058871  0.74857462    -0.81600
O2422       O  0.70139682  0.49940765  0.83696594    -0.81100
O2423       O  0.80147799  0.50027363  0.83560114    -0.79400
Eu2424     Eu  0.68882533  0.50036237  0.74985493     2.39800
Eu2425     Eu  0.81155938  0.49962301  0.74787560     2.39600
Eu2426     Eu  0.75030409  0.43790816  0.74844870     2.38400
Eu2427     Eu  0.75054455  0.06209087  0.74909275     2.39900
Eu2428     Eu  0.75120217  0.50010486  0.81111741     2.39800
O2429       O  0.78156356  0.03085814  0.77947817    -0.93800
O2430       O  0.72019799  0.46927610  0.78001074    -0.92700
C2431       C  0.67336282  0.50002714  0.82841477     1.01400
C2432       C  0.82917441  0.49902281  0.82613386     1.00100
C2433       C  0.67213106  0.42209065  0.74975146     0.99500
C2434       C  0.67277767  0.07876455  0.74906796     1.01500
C2435       C  0.82888698  0.07743279  0.74879838     1.00400
C2436       C  0.82863875  0.42176115  0.74864993     0.99200
C2437       C  0.74967767  0.42161028  0.82689016     0.99300
C2438       C  0.75401083  0.07841410  0.82745510     1.01900
H2439       H  0.79405817  0.45595809  0.79204459     0.29300
O2440       O  0.78135255  0.46875820  0.77948962    -1.06000
H2441       H  0.70763226  0.04428017  0.79376387     0.31300
O2442       O  0.71997029  0.03143188  0.78079134    -1.08500
O2443       O  0.70082241  0.16349245  0.00285214    -0.81100
O2444       O  0.69867269  0.33554221  0.99628361    -0.82700
O2445       O  0.66388628  0.24675102  0.54995723    -0.79700
O2446       O  0.66393527  0.25269108  0.95042807    -0.78100
O2447       O  0.69968113  0.24675743  0.91360875    -0.79800
O2448       O  0.70022406  0.25138605  0.58620747    -0.80800
O2449       O  0.66249562  0.29901518  0.00194429    -0.82100
O2450       O  0.66405042  0.19936109  0.99773737    -0.82400
Eu2451     Eu  0.68879846  0.24957593  0.99994647     2.39200
O2452       O  0.71872197  0.28084471  0.96847667    -0.89900
O2453       O  0.71973103  0.21882675  0.53063564    -0.93500
C2454       C  0.67280253  0.17145912  0.00078445     1.01200
C2455       C  0.67076985  0.32707897  0.99886838     1.01000
C2456       C  0.67227190  0.24932139  0.57803346     1.00900
C2457       C  0.67190390  0.24923442  0.92240461     0.98800
H2458       H  0.70635578  0.29356395  0.54352560     0.28600
O2459       O  0.71915822  0.28093844  0.53081476    -1.02300
H2460       H  0.70694799  0.20568164  0.95586592     0.28600
O2461       O  0.71944046  0.21867833  0.96850898    -1.04800
O2462       O  0.79948849  0.33647477  0.00365871    -0.82100
O2463       O  0.80106107  0.16523591  0.99484186    -0.81600
O2464       O  0.75071088  0.30017026  0.58654082    -0.80000
O2465       O  0.74888449  0.30052806  0.91234840    -0.83400
O2466       O  0.75221307  0.19989202  0.91230066    -0.81200
O2467       O  0.74870384  0.20017102  0.58704658    -0.79900
O2468       O  0.83659130  0.25291951  0.54941362    -0.81400
O2469       O  0.83560452  0.24805021  0.95003021    -0.83300
O2470       O  0.80043501  0.24806436  0.58605369    -0.80100
O2471       O  0.79972679  0.25233539  0.91307159    -0.82700
O2472       O  0.74800051  0.33693133  0.54944089    -0.78500
O2473       O  0.75098340  0.16320393  0.54994725    -0.78500
O2474       O  0.75121559  0.16270902  0.94908095    -0.78100
O2475       O  0.75062899  0.33762833  0.94931177    -0.81600
O2476       O  0.83662026  0.30059071  0.99969827    -0.81100
O2477       O  0.83724478  0.20184375  0.00057911    -0.79400
Eu2478     Eu  0.74932644  0.31203480  0.99934267     2.39800
Eu2479     Eu  0.75059836  0.18820839  0.99943384     2.39600
Eu2480     Eu  0.75020805  0.24997775  0.56158975     2.38400
Eu2481     Eu  0.74984465  0.25019161  0.93756909     2.39900
Eu2482     Eu  0.81106521  0.25090556  0.99985272     2.39800
O2483       O  0.78070567  0.21979365  0.96869292    -0.93800
O2484       O  0.78017454  0.28162265  0.53072250    -0.92700
C2485       C  0.82763479  0.32842047  0.00262805     1.01400
C2486       C  0.82890400  0.17391469  0.99701386     1.00100
C2487       C  0.74930745  0.32814414  0.57751454     0.99500
C2488       C  0.74980643  0.32872106  0.92113846     1.01500
C2489       C  0.75222467  0.17174951  0.92100888     1.00400
C2490       C  0.74967628  0.17207959  0.57813739     0.99200
C2491       C  0.82833437  0.25033227  0.57749766     0.99300
C2492       C  0.82749840  0.25024819  0.92191803     1.01900
H2493       H  0.79407702  0.20624687  0.54334847     0.29300
O2494       O  0.78129685  0.21896965  0.53080788    -1.06000
H2495       H  0.79324149  0.29449261  0.95589555     0.31300
O2496       O  0.78057645  0.28161749  0.96841458    -1.08500
C2497       C  0.77137977  0.12572990  0.64801731    -0.02800
C2498       C  0.74961578  0.10208960  0.64698435     0.06900
C2499       C  0.72769120  0.10172030  0.62348301    -0.02900
C2500       C  0.72712790  0.12519635  0.60162367    -0.02900
C2501       C  0.74943260  0.14827287  0.60205452     0.07000
C2502       C  0.77153001  0.14848393  0.62538542    -0.03100
Br2503     Br  0.80291276  0.17923415  0.62587577    -0.01700
Br2504     Br  0.80208948  0.12642094  0.67956882    -0.01700
Br2505     Br  0.69418705  0.12702965  0.57267742    -0.01700
Br2506     Br  0.69741222  0.06985114  0.62172984    -0.01700
C2507       C  0.72694519  0.37516085  0.64657613    -0.02800
C2508       C  0.74893526  0.39857667  0.64568614     0.06900
C2509       C  0.77024815  0.39925461  0.62159344    -0.02900
C2510       C  0.77134686  0.37522749  0.60034229    -0.02900
C2511       C  0.74922834  0.35210143  0.60107615     0.07000
C2512       C  0.72647685  0.35260613  0.62364903    -0.03100
Br2513     Br  0.69328858  0.32396049  0.62170573    -0.01700
Br2514     Br  0.69596589  0.37506377  0.67779439    -0.01700
Br2515     Br  0.80421786  0.37324836  0.57123653    -0.01700
Br2516     Br  0.79775372  0.43308451  0.61678607    -0.01700
C2517       C  0.77140221  0.37420676  0.85036111    -0.02800
C2518       C  0.74943816  0.39764397  0.85076788     0.06900
C2519       C  0.72749292  0.39826357  0.87427726    -0.06900
C2520       C  0.72764985  0.37579532  0.89727598    -0.02900
C2521       C  0.74986021  0.35258666  0.89710675     0.07000
C2522       C  0.77186842  0.35205763  0.87365241    -0.03100
Br2523     Br  0.80398969  0.32214450  0.87431734    -0.01700
Br2524     Br  0.80173776  0.37287133  0.81850074    -0.01700
Br2525     Br  0.69633390  0.37607717  0.92814556    -0.01700
Br2526     Br  0.69585250  0.42872709  0.87402445    -0.01700
C2527       C  0.72842695  0.12124101  0.85475637    -0.02800
C2528       C  0.75413973  0.10246533  0.85118718     0.06900
C2529       C  0.77966097  0.10699420  0.87011793    -0.02900
C2530       C  0.77951467  0.13059394  0.89213191    -0.02900
C2531       C  0.75309353  0.14808941  0.89688419     0.07000
C2532       C  0.72752652  0.14326234  0.87821526    -0.03100
Br2533     Br  0.69089564  0.16627022  0.88534926    -0.01700
Br2534     Br  0.69414900  0.11657021  0.82768735    -0.01700
Br2535     Br  0.81605685  0.14047026  0.91428263    -0.01700
Br2536     Br  0.81512924  0.08161629  0.86528996    -0.01700
C2537       C  0.85032707  0.12651637  0.76951929    -0.02800
C2538       C  0.85289879  0.10129618  0.74946037     0.06900
C2539       C  0.87874685  0.09888558  0.73048861    -0.02900
C2540       C  0.90094194  0.12204911  0.73067858    -0.02900
C2541       C  0.89822475  0.14748318  0.75053963     0.07000
C2542       C  0.87314879  0.14898204  0.77052530    -0.03100
Br2543     Br  0.87121238  0.17996749  0.80167505    -0.01700
Br2544     Br  0.81642068  0.12985458  0.79724940    -0.01700
Br2545     Br  0.93462224  0.11875687  0.70276212    -0.01700
Br2546     Br  0.88381850  0.06439966  0.70321771    -0.01700
C2547       C  0.90085227  0.37926031  0.77046039    -0.02800
C2548       C  0.90087521  0.35486053  0.74920645     0.06900
C2549       C  0.87818510  0.35403055  0.72648826    -0.02900
C2550       C  0.85379369  0.37481226  0.72717208    -0.02900
C2551       C  0.85297022  0.39826149  0.74934399     0.07000
C2552       C  0.87677276  0.40045231  0.77088842    -0.03100
Br2553     Br  0.87564344  0.43128627  0.80254053    -0.01700
Br2554     Br  0.93427228  0.38502113  0.79827751    -0.01700
Br2555     Br  0.82214836  0.37155783  0.69682073    -0.01700
Br2556     Br  0.88338297  0.32803159  0.69134466    -0.01700
C2557       C  0.59866926  0.12022887  0.76547247    -0.02800
C2558       C  0.60126140  0.14634020  0.74667820     0.06900
C2559       C  0.62695940  0.14926212  0.72754244    -0.02900
C2560       C  0.64994241  0.12689319  0.72781231    -0.02900
C2561       C  0.64849939  0.10230122  0.74855395     0.07000
C2562       C  0.62276276  0.09924995  0.76754257    -0.03100
Br2563     Br  0.62079172  0.06720053  0.79782024    -0.01700
Br2564     Br  0.56199445  0.11199076  0.78804301    -0.01700
Br2565     Br  0.68195555  0.12868298  0.69769921    -0.01700
Br2566     Br  0.62981440  0.18244123  0.69878236    -0.01700
C2567       C  0.60168253  0.37536251  0.73017810    -0.02800
C2568       C  0.60385235  0.35105645  0.75124693     0.06900
C2569       C  0.62861086  0.35026065  0.77165266    -0.02900
C2570       C  0.65086032  0.37334730  0.77105845    -0.02900
C2571       C  0.64839027  0.39795169  0.75038829     0.07000
C2572       C  0.62337036  0.39904149  0.73022951    -0.03100
Br2573     Br  0.61886493  0.43240689  0.70181170    -0.01700
Br2574     Br  0.57016761  0.37533485  0.69955965    -0.01700
Br2575     Br  0.68365449  0.37200490  0.80030369    -0.01700
Br2576     Br  0.63145498  0.31856620  0.80188337    -0.01700
C2577       C  0.86735343  0.25477695  0.65517081    -0.02800
C2578       C  0.89826980  0.24878353  0.64782056     0.06900
C2579       C  0.90543557  0.24172122  0.61676389    -0.02900
C2580       C  0.88215396  0.23921071  0.59476669    -0.02900
C2581       C  0.85248909  0.24970959  0.60151532     0.07000
C2582       C  0.84596997  0.25906497  0.63176452    -0.03100
Br2583     Br  0.80893060  0.28069730  0.64175771    -0.01700
Br2584     Br  0.85177466  0.25549025  0.69669186    -0.01700
Br2585     Br  0.89135857  0.21903571  0.55631164    -0.01700
Br2586     Br  0.94659456  0.23482063  0.60257674    -0.01700
C2587       C  0.65563908  0.24895259  0.63396850    -0.02800
C2588       C  0.64820125  0.25037284  0.60237779     0.06900
C2589       C  0.61717718  0.25402788  0.59452203    -0.02900
C2590       C  0.59446063  0.24982375  0.61668984    -0.02900
C2591       C  0.60191234  0.25131598  0.64826722     0.07000
C2592       C  0.63304806  0.25390446  0.65617277    -0.03100
Br2593     Br  0.64623980  0.26825949  0.69599121    -0.01700
Br2594     Br  0.69608255  0.23983166  0.64872880    -0.01700
Br2595     Br  0.55393717  0.24106185  0.60188534    -0.01700
Br2596     Br  0.60449438  0.26996657  0.55527334    -0.01700
C2597       C  0.63254046  0.24632177  0.84518871    -0.02800
C2598       C  0.60162027  0.24212405  0.85326285     0.06900
C2599       C  0.59455561  0.23686843  0.88458568    -0.02900
C2600       C  0.61765693  0.23762629  0.90686514    -0.02900
C2601       C  0.64746174  0.24714254  0.89890262     0.07000
C2602       C  0.65411780  0.25273096  0.86779475    -0.03100
Br2603     Br  0.69159001  0.27196229  0.85490120    -0.01700
Br2604     Br  0.64794161  0.23930472  0.80416883    -0.01700
Br2605     Br  0.60749734  0.22389319  0.94782158    -0.01700
Br2606     Br  0.55400834  0.22610584  0.89822907    -0.01700
C2607       C  0.90494785  0.25790167  0.88378274    -0.02800
C2608       C  0.89761474  0.25267533  0.85245875     0.06900
C2609       C  0.86651945  0.24887856  0.84471044    -0.02900
C2610       C  0.84520275  0.24305591  0.86767198    -0.02900
C2611       C  0.85178956  0.25087225  0.89828672     0.07000
C2612       C  0.88163618  0.26042758  0.90564910    -0.03100
Br2613     Br  0.89125166  0.27945876  0.94460118    -0.01700
Br2614     Br  0.94618706  0.26290816  0.89846519    -0.01700
Br2615     Br  0.80852786  0.22151240  0.85627341    -0.01700
Br2616     Br  0.85035470  0.25585155  0.80409748    -0.01700
C2617       C  0.87840422  0.34800674  0.52185870    -0.02800
C2618       C  0.85104619  0.35293707  0.50549839     0.06900
C2619       C  0.84498275  0.38254174  0.99431568    -0.02900
C2620       C  0.86505572  0.40668416  0.00041254    -0.02900
C2621       C  0.89462209  0.40059311  0.51148210     0.07000
C2622       C  0.90014898  0.37157446  0.52451477    -0.03100
Br2623     Br  0.93507120  0.36528320  0.55054448    -0.01700
Br2624     Br  0.88634819  0.30966249  0.54209612    -0.01700
Br2625     Br  0.84861748  0.44763806  0.99904118    -0.01700
Br2626     Br  0.81057689  0.39055423  0.96807519    -0.01700
C2627       C  0.88115868  0.15569112  0.98155246    -0.02800
C2628       C  0.85274575  0.14993118  0.49549303     0.06900
C2629       C  0.84674706  0.12057045  0.50724272    -0.02900
C2630       C  0.86765370  0.09672124  0.50300830    -0.02900
C2631       C  0.89732830  0.10293175  0.49174361     0.07000
C2632       C  0.90370097  0.13284742  0.98087384    -0.03100
Br2633     Br  0.94266439  0.14332943  0.96335261    -0.01700
Br2634     Br  0.88959423  0.19445804  0.96213816    -0.01700
Br2635     Br  0.85343879  0.05585255  0.51209840    -0.01700
Br2636     Br  0.81110998  0.11302714  0.53219608    -0.01700
C2637       C  0.59376853  0.36683150  0.49024361    -0.02800
C2638       C  0.60056277  0.39730979  0.49933494     0.06900
C2639       C  0.63136089  0.40462039  0.00620878    -0.02900
C2640       C  0.65324809  0.38134585  0.00864413    -0.02900
C2641       C  0.64670381  0.35130559  0.49848241     0.07000
C2642       C  0.61712344  0.34493479  0.48754958    -0.03100
Br2643     Br  0.60852156  0.30742807  0.46573492    -0.01700
Br2644     Br  0.55299096  0.35397206  0.47967035    -0.01700
Br2645     Br  0.69157310  0.39138138  0.02799348    -0.01700
Br2646     Br  0.64589460  0.44624737  0.01098890    -0.01700
C2647       C  0.63447419  0.09301128  0.49898080    -0.02800
C2648       C  0.60335637  0.10059862  0.50364520     0.06900
C2649       C  0.59622689  0.13151867  0.01063758    -0.02900
C2650       C  0.61938294  0.15362532  0.01247056    -0.02900
C2651       C  0.64912099  0.14691418  0.50225271     0.07000
C2652       C  0.65618791  0.11622275  0.49476605    -0.03100
Br2653     Br  0.69502379  0.10482142  0.47723517    -0.01700
Br2654     Br  0.64982279  0.05153116  0.50147580    -0.01700
Br2655     Br  0.61015247  0.19186677  0.03256779    -0.01700
Br2656     Br  0.55531054  0.14481902  0.02009970    -0.01700
C2657       C  0.87556766  0.47453853  0.89535633    -0.02800
C2658       C  0.90183599  0.99265121  0.89237114     0.06900
C2659       C  0.90539467  0.01034127  0.86555857    -0.02900
C2660       C  0.88094868  0.01403183  0.84517081    -0.02900
C2661       C  0.85380429  0.99737147  0.84932298     0.07000
C2662       C  0.85156946  0.47700235  0.87424253    -0.03100
Br2663     Br  0.81647263  0.45096703  0.87900228    -0.01700
Br2664     Br  0.87464286  0.44254692  0.92528166    -0.01700
Br2665     Br  0.88431383  0.04392483  0.81287946    -0.01700
Br2666     Br  0.94412248  0.02772774  0.85457685    -0.01700
C2667       C  0.62701867  0.02104161  0.89909727    -0.02800
C2668       C  0.60228547  0.00057191  0.89716939     0.06900
C2669       C  0.60006584  0.48168233  0.87081335    -0.02900
C2670       C  0.62394212  0.48044270  0.84936177    -0.02900
C2671       C  0.64937816  0.99980508  0.85239844     0.07000
C2672       C  0.65059831  0.02037320  0.87725804    -0.03100
Br2673     Br  0.68365681  0.04917771  0.88063223    -0.01700
Br2674     Br  0.62613700  0.05386709  0.92817059    -0.01700
Br2675     Br  0.62221458  0.45069755  0.81658899    -0.01700
Br2676     Br  0.56363392  0.45899223  0.86176251    -0.01700
C2677       C  0.61830715  0.47589858  0.60710281    -0.02800
C2678       C  0.59640295  0.99929462  0.60686457     0.06900
C2679       C  0.59649304  0.02088725  0.63094692    -0.02900
C2680       C  0.62161115  0.02297465  0.65075412    -0.02900
C2681       C  0.64502395  0.00100995  0.64930558     0.07000
C2682       C  0.64248726  0.47668968  0.62819624    -0.03100
Br2683     Br  0.67055642  0.44300810  0.62985237    -0.01700
Br2684     Br  0.61159662  0.43985378  0.58268228    -0.01700
Br2685     Br  0.62421295  0.05686940  0.67895085    -0.01700
Br2686     Br  0.56085617  0.04468123  0.64005477    -0.01700
C2687       C  0.87592457  0.02760488  0.60498423    -0.02800
C2688       C  0.89340432  0.00150773  0.59831235     0.06900
C2689       C  0.88770561  0.47421408  0.61431056    -0.02900
C2690       C  0.86724108  0.47404595  0.63902759    -0.02900
C2691       C  0.84930814  0.99994802  0.64504261     0.07000
C2692       C  0.85306357  0.02641822  0.62734421    -0.03100
Br2693     Br  0.82742359  0.06137715  0.63437252    -0.01700
Br2694     Br  0.88356977  0.06526973  0.58428636    -0.01700
Br2695     Br  0.86380507  0.43848486  0.66464534    -0.01700
Br2696     Br  0.90519263  0.43645535  0.60012158    -0.01700
C2697       C  0.52650836  0.11026727  0.88406080    -0.02800
C2698       C  0.49894308  0.09744423  0.89388409     0.06900
C2699       C  0.97138356  0.10857015  0.88216129    -0.02900
C2700       C  0.97160746  0.13135455  0.85951010    -0.02900
C2701       C  0.49917649  0.14475825  0.85030644     0.07000
C2702       C  0.52658893  0.13475975  0.86335256    -0.03100
Br2703     Br  0.56409124  0.15539173  0.85397335    -0.01700
Br2704     Br  0.56415252  0.09417938  0.89905364    -0.01700
Br2705     Br  0.93416575  0.14454862  0.84136741    -0.01700
Br2706     Br  0.93340459  0.09363400  0.89812981    -0.01700
C2707       C  0.53013412  0.36041835  0.86810025    -0.02800
C2708       C  0.50276766  0.34730424  0.85791703     0.06900
C2709       C  0.97528258  0.35508218  0.87231218    -0.02900
C2710       C  0.97490911  0.37732127  0.89556614    -0.02900
C2711       C  0.50208346  0.39148205  0.90483086     0.07000
C2712       C  0.52984310  0.38199603  0.89203727    -0.03100
Br2713     Br  0.56745091  0.39686616  0.90893216    -0.01700
Br2714     Br  0.56796556  0.34835881  0.84966652    -0.01700
Br2715     Br  0.93720003  0.38808808  0.91496712    -0.01700
Br2716     Br  0.93810061  0.33528694  0.86008328    -0.01700
C2717       C  0.48373936  0.38371127  0.65829152    -0.02800
C2718       C  0.50085382  0.35681631  0.65378532     0.06900
C2719       C  0.02019748  0.35472714  0.62821049    -0.02900
C2720       C  0.01996009  0.37760026  0.60565679    -0.02900
C2721       C  0.50174852  0.40403518  0.60932620     0.07000
C2722       C  0.48558507  0.40788590  0.63713946    -0.03100
Br2723     Br  0.46700527  0.44635427  0.64801792    -0.01700
Br2724     Br  0.45635170  0.38727322  0.69265015    -0.01700
Br2725     Br  0.04721295  0.37345218  0.57127585    -0.01700
Br2726     Br  0.04940275  0.32198629  0.62541057    -0.01700
C2727       C  0.52958023  0.11854172  0.61066417    -0.02800
C2728       C  0.50251249  0.10947675  0.59612394     0.06900
C2729       C  0.97528309  0.12444410  0.60360244    -0.02900
C2730       C  0.97425568  0.14545665  0.62797245    -0.02900
C2731       C  0.50078362  0.15219823  0.64457120     0.07000
C2732       C  0.52853659  0.13899374  0.63561341    -0.03100
Br2733     Br  0.56507125  0.14910519  0.65751825    -0.01700
Br2734     Br  0.56814439  0.10641374  0.59385892    -0.01700
Br2735     Br  0.93631910  0.16445696  0.63880326    -0.01700
Br2736     Br  0.94007769  0.11816742  0.57854016    -0.01700
O2737       O  0.50027670  0.55658059  0.08395668    -0.81100
O2738       O  0.49911333  0.54593397  0.41074466    -0.82700
O2739       O  0.55111734  0.58532928  0.99747181    -0.79700
O2740       O  0.94952990  0.58737577  0.99563300    -0.78100
O2741       O  0.91333081  0.55074345  0.99154129    -0.79800
O2742       O  0.58658987  0.54858744  0.00402314    -0.80800
O2743       O  0.49962942  0.58477795  0.44602903    -0.82100
O2744       O  0.50209014  0.59138792  0.04501266    -0.82400
Eu2745     Eu  0.49978897  0.56221083  0.99708399     2.39200
O2746       O  0.96983520  0.52979303  0.46640136    -0.89900
O2747       O  0.52909412  0.53226254  0.03018220    -0.93500
C2748       C  0.50205883  0.58418256  0.07355362     1.01200
C2749       C  0.49907045  0.57447328  0.41841439     1.01000
C2750       C  0.57881759  0.57671835  0.00164958     1.00900
C2751       C  0.92161745  0.57888442  0.99271348     0.98800
H2752       H  0.54388064  0.54164344  0.45527788     0.28600
O2753       O  0.53096385  0.52940489  0.46817983    -1.02300
H2754       H  0.95435811  0.54705735  0.04051930     0.28600
O2755       O  0.96723624  0.53356031  0.02880172    -1.04800
O2756       O  0.50312291  0.94413159  0.41691174    -0.82100
O2757       O  0.49920332  0.95558736  0.09097896    -0.81600
O2758       O  0.58676707  0.50022928  0.45029149    -0.80000
O2759       O  0.91490743  0.49634526  0.44548878    -0.83400
O2760       O  0.91014609  0.50324161  0.04673377    -0.81200
O2761       O  0.58305358  0.49934740  0.05382303    -0.79900
O2762       O  0.54832418  0.91300107  0.00468406    -0.81400
O2763       O  0.94740595  0.91414789  0.00781182    -0.83300
O2764       O  0.58431216  0.94938790  0.99882556    -0.80100
O2765       O  0.91214083  0.95174752  0.00437244    -0.82700
O2766       O  0.55057284  0.49860817  0.41305320    -0.78500
O2767       O  0.54535402  0.50248634  0.08968516    -0.78500
O2768       O  0.94555423  0.50272017  0.08511297    -0.78100
O2769       O  0.95291521  0.49292935  0.41020931    -0.81600
O2770       O  0.49882716  0.90938232  0.45579878    -0.81100
O2771       O  0.49855914  0.91656671  0.05633602    -0.79400
Eu2772     Eu  0.50087215  0.49651951  0.43805573     2.39800
Eu2773     Eu  0.49699505  0.50401834  0.06237573     2.39600
Eu2774     Eu  0.56059010  0.49961087  0.00136158     2.38400
Eu2775     Eu  0.93757500  0.50086958  0.99759405     2.39900
Eu2776     Eu  0.49813086  0.93810896  0.00416045     2.39800
O2777       O  0.96699915  0.97183235  0.03172977    -0.93800
O2778       O  0.53000502  0.96694009  0.47183601    -0.92700
C2779       C  0.50139064  0.91660384  0.42734725     1.01400
C2780       C  0.49961619  0.92692293  0.08403451     1.00100
C2781       C  0.57843011  0.49976674  0.42178028     0.99500
C2782       C  0.92468869  0.49385750  0.41761024     1.01500
C2783       C  0.91792935  0.50271363  0.07519509     1.00400
C2784       C  0.57344497  0.50058386  0.08187608     0.99200
C2785       C  0.57616802  0.92133278  0.00106605     0.99300
C2786       C  0.91964490  0.92363444  0.00805554     1.01900
H2787       H  0.54082814  0.95876776  0.04691405     0.29300
O2788       O  0.52848280  0.97104341  0.03353317    -1.06000
H2789       H  0.95635963  0.95369608  0.45767415     0.31300
O2790       O  0.96877982  0.96725512  0.46980722    -1.08500
O2791       O  0.50024365  0.70326574  0.16202783    -0.81100
O2792       O  0.49899287  0.69708791  0.33704538    -0.82700
O2793       O  0.54953177  0.66236292  0.24632219    -0.79700
O2794       O  0.94981718  0.66310413  0.25078556    -0.78100
O2795       O  0.91327127  0.70010307  0.25069697    -0.79800
O2796       O  0.58658494  0.69865955  0.24945004    -0.80800
O2797       O  0.49981468  0.66122579  0.29878059    -0.82100
O2798       O  0.49967849  0.66467648  0.19735986    -0.82400
Eu2799     Eu  0.49972211  0.68771427  0.24894850     2.39200
O2800       O  0.96889211  0.71813781  0.28068754    -0.89900
O2801       O  0.53025084  0.71980628  0.21891149    -0.93500
C2802       C  0.50006181  0.67482300  0.16965150     1.01200
C2803       C  0.49932565  0.66928140  0.32722269     1.01000
C2804       C  0.57759789  0.67065592  0.24741346     1.00900
C2805       C  0.92190712  0.67184222  0.25081381     0.98800
H2806       H  0.54312699  0.70389238  0.29319806     0.28600
O2807       O  0.53072444  0.71726628  0.28095657    -1.02300
H2808       H  0.95669058  0.70771034  0.20591359     0.28600
O2809       O  0.96932476  0.72013151  0.21899333    -1.04800
O2810       O  0.50181890  0.79636177  0.34048597    -0.82100
O2811       O  0.49840121  0.80400745  0.16657819    -0.81600
O2812       O  0.58548498  0.74599947  0.30121806    -0.80000
O2813       O  0.91343748  0.75160242  0.30015924    -0.83400
O2814       O  0.91427372  0.74897252  0.20031112    -0.81200
O2815       O  0.58612666  0.74744091  0.20057319    -0.79900
O2816       O  0.55206010  0.83617085  0.25369801    -0.81400
O2817       O  0.95233011  0.83834940  0.25235308    -0.83300
O2818       O  0.58818185  0.79878312  0.25126874    -0.80100
O2819       O  0.91501668  0.80215254  0.24951922    -0.82700
O2820       O  0.54943646  0.74549193  0.33795472    -0.78500
O2821       O  0.54992297  0.75393913  0.16447932    -0.78500
O2822       O  0.95034735  0.75258920  0.16378163    -0.78100
O2823       O  0.94957925  0.74864047  0.33668734    -0.81600
O2824       O  0.50292900  0.83494735  0.30523766    -0.81100
O2825       O  0.50202336  0.83925867  0.20503414    -0.79400
Eu2826     Eu  0.49997027  0.74765353  0.31277107     2.39800
Eu2827     Eu  0.49996373  0.75250110  0.18923696     2.39600
Eu2828     Eu  0.56170808  0.74898455  0.25088108     2.38400
Eu2829     Eu  0.93871047  0.75068309  0.25063306     2.39900
Eu2830     Eu  0.50156598  0.81199956  0.25374721     2.39800
O2831       O  0.96991665  0.78284184  0.22146051    -0.93800
O2832       O  0.53172833  0.77936057  0.28345942    -0.92700
C2833       C  0.50275222  0.82475557  0.33289971     1.01400
C2834       C  0.50014830  0.83175554  0.17659187     1.00100
C2835       C  0.57729991  0.74444221  0.32937034     0.99500
C2836       C  0.92170772  0.75091513  0.32829763     1.01500
C2837       C  0.92246081  0.75015275  0.17210735     1.00400
C2838       C  0.57780586  0.75085009  0.17258609     0.99200
C2839       C  0.57988146  0.82708640  0.25225934     0.99300
C2840       C  0.92426503  0.83023202  0.25049022     1.01900
H2841       H  0.54435177  0.79469115  0.20879911     0.29300
O2842       O  0.53159176  0.78177063  0.22116456    -1.06000
H2843       H  0.95740842  0.79310213  0.29605912     0.31300
O2844       O  0.96981609  0.78038744  0.28301574    -1.08500
O2845       O  0.83568283  0.99926328  0.19727773    -0.81100
O2846       O  0.66216989  0.00132390  0.20061521    -0.82700
O2847       O  0.74825452  0.95037545  0.16107613    -0.79700
O2848       O  0.74944269  0.55010038  0.16166021    -0.78100
O2849       O  0.74950426  0.58692392  0.19888685    -0.79800
O2850       O  0.75060072  0.91333122  0.19778366    -0.80800
O2851       O  0.69770075  0.00089197  0.16250558    -0.82100
O2852       O  0.79820648  0.99958739  0.16099880    -0.82400
Eu2853     Eu  0.74865024  0.00013990  0.18668954     2.39200
O2854       O  0.71893953  0.53143234  0.21843068    -0.89900
O2855       O  0.78028338  0.96897666  0.21684352    -0.93500
C2856       C  0.82625020  0.99937927  0.16937455     1.01200
C2857       C  0.66996954  0.00132342  0.17219785     1.01000
C2858       C  0.74938125  0.92230099  0.16971742     1.00900
C2859       C  0.74949178  0.57815619  0.17069812     0.98800
H2860       H  0.70569471  0.95632786  0.20554764     0.28600
O2861       O  0.71865404  0.96893303  0.21813452    -1.02300
H2862       H  0.79303138  0.54342937  0.20451802     0.28600
O2863       O  0.78045167  0.53080798  0.21736211    -1.04800
O2864       O  0.66453362  0.00098692  0.30031914    -0.82100
O2865       O  0.83707784  0.99840568  0.29774357    -0.81600
O2866       O  0.70006011  0.91332088  0.24859781    -0.80000
O2867       O  0.70069143  0.58773766  0.24983541    -0.83400
O2868       O  0.80100231  0.58635656  0.24792272    -0.81200
O2869       O  0.80069535  0.91280183  0.24901268    -0.79900
O2870       O  0.75055941  0.94969956  0.33585771    -0.81400
O2871       O  0.75381890  0.55035363  0.33640843    -0.83300
O2872       O  0.74923637  0.91282887  0.29866271    -0.80100
O2873       O  0.75301832  0.58717857  0.29933882    -0.82700
O2874       O  0.66347686  0.95025239  0.25053977    -0.78500
O2875       O  0.83713186  0.94992647  0.24771207    -0.78500
O2876       O  0.83732704  0.54925907  0.24939265    -0.78100
O2877       O  0.66430277  0.55059675  0.24857614    -0.81600
O2878       O  0.70139837  0.99941233  0.33696601    -0.81100
O2879       O  0.80147170  0.00026939  0.33560452    -0.79400
Eu2880     Eu  0.68882697  0.00036827  0.24985160     2.39800
Eu2881     Eu  0.81155952  0.99962666  0.24787752     2.39600
Eu2882     Eu  0.75030354  0.93790937  0.24844055     2.38400
Eu2883     Eu  0.75054922  0.56209560  0.24909480     2.39900
Eu2884     Eu  0.75120073  0.00009939  0.31111459     2.39800
O2885       O  0.78156119  0.53085718  0.27948214    -0.93800
O2886       O  0.72019635  0.96927548  0.28000419    -0.92700
C2887       C  0.67336567  0.00003916  0.32841211     1.01400
C2888       C  0.82916857  0.99902561  0.32613888     1.00100
C2889       C  0.67212706  0.92209436  0.24975085     0.99500
C2890       C  0.67278056  0.57877245  0.24907062     1.01500
C2891       C  0.82889323  0.57743583  0.24880993     1.00400
C2892       C  0.82864467  0.92176777  0.24864135     0.99200
C2893       C  0.74967255  0.92159556  0.32687455     0.99300
C2894       C  0.75401928  0.57840712  0.32745634     1.01900
H2895       H  0.79405827  0.95595464  0.29204045     0.29300
O2896       O  0.78135277  0.96875551  0.27948609    -1.06000
H2897       H  0.70763562  0.54428178  0.29376237     0.31300
O2898       O  0.71997293  0.53143335  0.28078931    -1.08500
O2899       O  0.70081549  0.66349166  0.50286763    -0.81100
O2900       O  0.69865749  0.83553498  0.49626772    -0.82700
O2901       O  0.66387736  0.74675540  0.04994984    -0.79700
O2902       O  0.66392028  0.75266335  0.45042658    -0.78100
O2903       O  0.69966575  0.74674635  0.41360386    -0.79800
O2904       O  0.70021622  0.75138759  0.08619948    -0.80800
O2905       O  0.66247844  0.79900613  0.50191431    -0.82100
O2906       O  0.66403926  0.69935577  0.49774975    -0.82400
Eu2907     Eu  0.68879035  0.74956844  0.49994313     2.39200
O2908       O  0.71871031  0.78083787  0.46847153    -0.89900
O2909       O  0.71973214  0.71882749  0.03063434    -0.93500
C2910       C  0.67279463  0.67145539  0.50080063     1.01200
C2911       C  0.67075401  0.82707028  0.49884093     1.01000
C2912       C  0.67226282  0.74932480  0.07802631     1.00900
C2913       C  0.67188780  0.74921423  0.42240185     0.98800
H2914       H  0.70636684  0.79356926  0.04352865     0.28600
O2915       O  0.71916717  0.78094356  0.03081589    -1.02300
H2916       H  0.70693988  0.70566670  0.45586599     0.28600
O2917       O  0.71943146  0.71866578  0.46850754    -1.04800
O2918       O  0.79946677  0.83648382  0.50365534    -0.82100
O2919       O  0.80105343  0.66522015  0.49486516    -0.81600
O2920       O  0.75072287  0.80016878  0.08653928    -0.80000
O2921       O  0.74887516  0.80051560  0.41234012    -0.83400
O2922       O  0.75221999  0.69987911  0.41230350    -0.81200
O2923       O  0.74870688  0.70017280  0.08704324    -0.79900
O2924       O  0.83659333  0.75292150  0.04941199    -0.81400
O2925       O  0.83559057  0.74805658  0.45002029    -0.83300
O2926       O  0.80043577  0.74805857  0.08605083    -0.80100
O2927       O  0.79970965  0.75232852  0.41306183    -0.82700
O2928       O  0.74802465  0.83693300  0.04944126    -0.78500
O2929       O  0.75099182  0.66320746  0.04994200    -0.78500
O2930       O  0.75122603  0.66269856  0.44908619    -0.78100
O2931       O  0.75062033  0.83761791  0.44930175    -0.81600
O2932       O  0.83660133  0.80060083  0.49970422    -0.81100
O2933       O  0.83722995  0.70183662  0.50059357    -0.79400
Eu2934     Eu  0.74931192  0.81203166  0.49933802     2.39800
Eu2935     Eu  0.75059389  0.68820298  0.49943761     2.39600
Eu2936     Eu  0.75020911  0.74997720  0.06158878     2.38400
Eu2937     Eu  0.74983220  0.75018150  0.43756590     2.39900
Eu2938     Eu  0.81105869  0.75090592  0.49985119     2.39800
O2939       O  0.78069730  0.71979106  0.46869482    -0.93800
O2940       O  0.78018167  0.78162071  0.03072565    -0.92700
C2941       C  0.82761348  0.82843088  0.50263056     1.01400
C2942       C  0.82889469  0.67390418  0.49703853     1.00100
C2943       C  0.74932728  0.82814327  0.07751368     0.99500
C2944       C  0.74979845  0.82870908  0.42112869     1.01500
C2945       C  0.75223819  0.67173710  0.42101350     1.00400
C2946       C  0.74968346  0.67208246  0.07813250     0.99200
C2947       C  0.82833484  0.75033089  0.07749460     0.99300
C2948       C  0.82748184  0.75024792  0.42190732     1.01900
H2949       H  0.79408073  0.70624569  0.04334447     0.29300
O2950       O  0.78130032  0.71897043  0.03080609    -1.06000
H2951       H  0.79322615  0.79448576  0.45589277     0.31300
O2952       O  0.78056203  0.78161054  0.46841257    -1.08500
C2953       C  0.77138422  0.62574780  0.14802133    -0.02800
C2954       C  0.74961798  0.60210865  0.14699399     0.06900
C2955       C  0.72769027  0.60173917  0.12349547    -0.02900
C2956       C  0.72713047  0.62520867  0.10162924    -0.02900
C2957       C  0.74944209  0.64827772  0.10205004     0.07000
C2958       C  0.77154164  0.64849109  0.12537853    -0.03100
Br2959     Br  0.80293887  0.67922723  0.12584666    -0.01700
Br2960     Br  0.80208301  0.62645643  0.17958301    -0.01700
Br2961     Br  0.69418712  0.62704369  0.07268559    -0.01700
Br2962     Br  0.69739839  0.56988224  0.12175924    -0.01700
C2963       C  0.72693461  0.87516555  0.14655683    -0.02800
C2964       C  0.74893275  0.89857483  0.14568232     0.06900
C2965       C  0.77026894  0.89924076  0.12161050    -0.02900
C2966       C  0.77137139  0.87521605  0.10035659    -0.02900
C2967       C  0.74924400  0.85209838  0.10107513     0.07000
C2968       C  0.72647634  0.85261015  0.12363041    -0.03100
Br2969     Br  0.69328215  0.82397179  0.12166121    -0.01700
Br2970     Br  0.69593901  0.87507104  0.17775773    -0.01700
Br2971     Br  0.80425470  0.87322975  0.07126492    -0.01700
Br2972     Br  0.79781148  0.93304595  0.11684665    -0.01700
C2973       C  0.77139093  0.87418515  0.35034335    -0.02800
C2974       C  0.74942866  0.89762485  0.35074925     0.06900
C2975       C  0.72748094  0.89824351  0.37425646    -0.06900
C2976       C  0.72763999  0.87577920  0.39725932    -0.02900
C2977       C  0.74985303  0.85257334  0.39709514     0.07000
C2978       C  0.77186223  0.85204344  0.37364202    -0.03100
Br2979     Br  0.80399769  0.82214629  0.37432557    -0.01700
Br2980     Br  0.80171201  0.87282888  0.31846978    -0.01700
Br2981     Br  0.69632844  0.87606694  0.42813329    -0.01700
Br2982     Br  0.69583017  0.92869588  0.37399067    -0.01700
C2983       C  0.72843135  0.62121718  0.35477421    -0.02800
C2984       C  0.75415074  0.60245486  0.35118997     0.06900
C2985       C  0.77968048  0.60699396  0.37010565    -0.02900
C2986       C  0.77953442  0.63058953  0.39212454    -0.02900
C2987       C  0.75310864  0.64807594  0.39688921     0.07000
C2988       C  0.72753509  0.64323985  0.37823137    -0.03100
Br2989     Br  0.69090131  0.66623950  0.38537598    -0.01700
Br2990     Br  0.69413883  0.61652470  0.32772734    -0.01700
Br2991     Br  0.81608070  0.64046852  0.41426672    -0.01700
Br2992     Br  0.81515760  0.58163397  0.36524871    -0.01700
C2993       C  0.85034236  0.62652148  0.26952500    -0.02800
C2994       C  0.85291069  0.60129498  0.24947213     0.06900
C2995       C  0.87876550  0.59887028  0.23050971    -0.02900
C2996       C  0.90096721  0.62202708  0.23069931    -0.02900
C2997       C  0.89825246  0.64746442  0.25055549     0.07000
C2998       C  0.87317736  0.64897257  0.27054007    -0.03100
Br2999     Br  0.87126458  0.67994834  0.30170311    -0.01700
Br3000     Br  0.81641754  0.62989808  0.29722695    -0.01700
Br3001     Br  0.93465380  0.61872106  0.20279053    -0.01700
Br3002     Br  0.88383720  0.56437747  0.20324723    -0.01700
C3003       C  0.90084283  0.87924386  0.27046537    -0.02800
C3004       C  0.90086856  0.85485329  0.24920148     0.06900
C3005       C  0.87819533  0.85404337  0.22646655    -0.02900
C3006       C  0.85380848  0.87483073  0.22714693    -0.02900
C3007       C  0.85297666  0.89826773  0.24933203     0.07000
C3008       C  0.87677189  0.90044593  0.27088676    -0.03100
Br3009     Br  0.87564951  0.93128124  0.30253751    -0.01700
Br3010     Br  0.93424939  0.88497490  0.29830657    -0.01700
Br3011     Br  0.82218598  0.87160668  0.19676873    -0.01700
Br3012     Br  0.88341968  0.82807135  0.19130683    -0.01700
C3013       C  0.59867921  0.62024394  0.26549764    -0.02800
C3014       C  0.60126879  0.64635450  0.24670225     0.06900
C3015       C  0.62696004  0.64927345  0.22755797    -0.02900
C3016       C  0.64993975  0.62690109  0.22781913    -0.02900
C3017       C  0.64850228  0.60231020  0.24856266     0.07000
C3018       C  0.62277036  0.59926106  0.26755882    -0.03100
Br3019     Br  0.62079855  0.56720423  0.29782828    -0.01700
Br3020     Br  0.56200909  0.61201184  0.28807859    -0.01700
Br3021     Br  0.68193353  0.62867890  0.19768520    -0.01700
Br3022     Br  0.62980536  0.68245178  0.19879573    -0.01700
C3023       C  0.60166727  0.87537364  0.23018708    -0.02800
C3024       C  0.60384166  0.85106170  0.25124818     0.06900
C3025       C  0.62861110  0.85025344  0.27163993    -0.02900
C3026       C  0.65085841  0.87334277  0.27105004    -0.02900
C3027       C  0.64838388  0.89795500  0.25038869     0.07000
C3028       C  0.62335937  0.89904917  0.23023515    -0.03100
Br3029     Br  0.61885708  0.93241167  0.20181357    -0.01700
Br3030     Br  0.57014445  0.87535262  0.19957685    -0.01700
Br3031     Br  0.68365731  0.87198905  0.30028851    -0.01700
Br3032     Br  0.63148220  0.81852823  0.30183723    -0.01700
C3033       C  0.86734573  0.75480270  0.15516455    -0.02800
C3034       C  0.89825810  0.74877952  0.14782281     0.06900
C3035       C  0.90542531  0.74169416  0.11677198    -0.02900
C3036       C  0.88214736  0.73919389  0.09476993    -0.02900
C3037       C  0.85248749  0.74971105  0.10151121     0.07000
C3038       C  0.84596921  0.75908968  0.13175239    -0.03100
Br3039     Br  0.80894373  0.78075830  0.14171972    -0.01700
Br3040     Br  0.85176366  0.75556469  0.19668272    -0.01700
Br3041     Br  0.89134980  0.71901789  0.05631456    -0.01700
Br3042     Br  0.94658221  0.73474419  0.10260338    -0.01700
C3043       C  0.65563022  0.74895778  0.13396270    -0.02800
C3044       C  0.64819142  0.75037698  0.10237221     0.06900
C3045       C  0.61716646  0.75403402  0.09451934    -0.02900
C3046       C  0.59445057  0.74983331  0.11668936    -0.02900
C3047       C  0.60190467  0.75132717  0.14826606     0.07000
C3048       C  0.63304111  0.75391439  0.15616829    -0.03100
Br3049     Br  0.64623596  0.76827923  0.19598178    -0.01700
Br3050     Br  0.69607268  0.73983168  0.14872087    -0.01700
Br3051     Br  0.55392351  0.74107905  0.10188935    -0.01700
Br3052     Br  0.60448267  0.76997849  0.05527447    -0.01700
C3053       C  0.63251803  0.74630134  0.34519035    -0.02800
C3054       C  0.60159647  0.74212551  0.35326634     0.06900
C3055       C  0.59452955  0.73688084  0.38459089    -0.02900
C3056       C  0.61763597  0.73761612  0.40686579    -0.02900
C3057       C  0.64744317  0.74712422  0.39890142     0.07000
C3058       C  0.65409624  0.75271314  0.36779330    -0.03100
Br3059     Br  0.69155889  0.77195616  0.35489412    -0.01700
Br3060     Br  0.64791822  0.73924145  0.30417757    -0.01700
Br3061     Br  0.60748085  0.72386022  0.44781517    -0.01700
Br3062     Br  0.55397138  0.72617250  0.39824619    -0.01700
C3063       C  0.90493486  0.75785219  0.38377889    -0.02800
C3064       C  0.89760286  0.75264409  0.35245142     0.06900
C3065       C  0.86650590  0.74886484  0.34469911    -0.02900
C3066       C  0.84518506  0.74304920  0.36765892    -0.02900
C3067       C  0.85177086  0.75086820  0.39827358     0.07000
C3068       C  0.88161993  0.76041164  0.40563632    -0.03100
Br3069     Br  0.89123309  0.77948310  0.44456832    -0.01700
Br3070     Br  0.94617560  0.76276141  0.39848797    -0.01700
Br3071     Br  0.80851042  0.72150757  0.35625838    -0.01700
Br3072     Br  0.85034744  0.75583524  0.30408267    -0.01700
C3073       C  0.87843048  0.84799583  0.02184356    -0.02800
C3074       C  0.85106585  0.85292825  0.00549405     0.06900
C3075       C  0.84496885  0.88255131  0.49431060    -0.02900
C3076       C  0.86505167  0.90668925  0.50039468    -0.02900
C3077       C  0.89462626  0.90059582  0.01149972     0.07000
C3078       C  0.90016365  0.87157254  0.02451708    -0.03100
Br3079     Br  0.93507917  0.86528804  0.05055760    -0.01700
Br3080     Br  0.88640699  0.80963306  0.04203383    -0.01700
Br3081     Br  0.84863307  0.94765082  0.49898569    -0.01700
Br3082     Br  0.81055870  0.89056717  0.46807694    -0.01700
C3083       C  0.88115390  0.65568661  0.48158336    -0.02800
C3084       C  0.85274781  0.64993841  0.99545174     0.06900
C3085       C  0.84674130  0.62057434  0.00718714    -0.02900
C3086       C  0.86764139  0.59672268  0.00294062    -0.02900
C3087       C  0.89732765  0.60293694  0.99170845     0.07000
C3088       C  0.90369267  0.63283962  0.48088739    -0.03100
Br3089     Br  0.94263693  0.64330505  0.46331426    -0.01700
Br3090     Br  0.88959682  0.69446566  0.46219444    -0.01700
Br3091     Br  0.85339489  0.55584909  0.01195894    -0.01700
Br3092     Br  0.81110447  0.61302706  0.03213961    -0.01700
C3093       C  0.59377152  0.86682937  0.99032443    -0.02800
C3094       C  0.60057250  0.89731778  0.99937877     0.06900
C3095       C  0.63134545  0.90460794  0.50618676    -0.02900
C3096       C  0.65322805  0.88133130  0.50862942    -0.02900
C3097       C  0.64671749  0.85131387  0.99851886     0.07000
C3098       C  0.61712479  0.84493187  0.98762548    -0.03100
Br3099     Br  0.60849402  0.80740142  0.96586197    -0.01700
Br3100     Br  0.55298260  0.85394661  0.97982046    -0.01700
Br3101     Br  0.69153583  0.89135493  0.52801788    -0.01700
Br3102     Br  0.64588192  0.94623338  0.51097027    -0.01700
C3103       C  0.63447278  0.59302074  0.99898058    -0.02800
C3104       C  0.60335384  0.60061190  0.00363147     0.06900
C3105       C  0.59622515  0.63150617  0.51065908    -0.02900
C3106       C  0.61938013  0.65361349  0.51249528    -0.02900
C3107       C  0.64912279  0.64692371  0.00222963     0.07000
C3108       C  0.65618817  0.61622876  0.99475631    -0.03100
Br3109     Br  0.69502326  0.60481664  0.97723103    -0.01700
Br3110     Br  0.64982117  0.55154305  0.00151319    -0.01700
Br3111     Br  0.61015311  0.69184728  0.53260771    -0.01700
Br3112     Br  0.55531015  0.64479955  0.52013761    -0.01700
C3113       C  0.87557848  0.97451572  0.39534017    -0.02800
C3114       C  0.90183717  0.49263437  0.39236179     0.06900
C3115       C  0.90538346  0.51034268  0.36556043    -0.02900
C3116       C  0.88092872  0.51404552  0.34518687    -0.02900
C3117       C  0.85379187  0.49737259  0.34933359     0.07000
C3118       C  0.85157063  0.97699297  0.37423912    -0.03100
Br3119     Br  0.81646686  0.95096982  0.37901182    -0.01700
Br3120     Br  0.87468101  0.94249117  0.42523145    -0.01700
Br3121     Br  0.88426578  0.54397996  0.31293173    -0.01700
Br3122     Br  0.94410863  0.52772586  0.35456586    -0.01700
C3123       C  0.62701009  0.52104441  0.39908617    -0.02800
C3124       C  0.60227284  0.50058131  0.39714874     0.06900
C3125       C  0.60005472  0.98170718  0.37078625    -0.02900
C3126       C  0.62393747  0.98046357  0.34934291    -0.02900
C3127       C  0.64937426  0.49981366  0.35238841     0.07000
C3128       C  0.65059511  0.52037446  0.37725365    -0.03100
Br3129     Br  0.68366199  0.54916669  0.38064656    -0.01700
Br3130     Br  0.62611950  0.55387376  0.42815307    -0.01700
Br3131     Br  0.62221091  0.95072447  0.31656414    -0.01700
Br3132     Br  0.56360755  0.95905668  0.36169871    -0.01700
C3133       C  0.61830260  0.97592552  0.10710908    -0.02800
C3134       C  0.59640178  0.49932560  0.10687005     0.06900
C3135       C  0.59650124  0.52092490  0.13094618    -0.02900
C3136       C  0.62162012  0.52300614  0.15075288    -0.02900
C3137       C  0.64502783  0.50103595  0.14930340     0.07000
C3138       C  0.64248676  0.97671702  0.12819667    -0.03100
Br3139     Br  0.67056249  0.94304006  0.12983965    -0.01700
Br3140     Br  0.61158812  0.93987992  0.08269046    -0.01700
Br3141     Br  0.62423119  0.55689996  0.17894995    -0.01700
Br3142     Br  0.56087811  0.54474458  0.14004055    -0.01700
C3143       C  0.87588913  0.52760950  0.10495755    -0.02800
C3144       C  0.89340528  0.50152829  0.09831953     0.06900
C3145       C  0.88773892  0.97424671  0.11434358    -0.02900
C3146       C  0.86727427  0.97407997  0.13905945    -0.02900
C3147       C  0.84931416  0.49996615  0.14505317     0.07000
C3148       C  0.85303832  0.52642329  0.12732820    -0.03100
Br3149     Br  0.82737541  0.56136983  0.13434093    -0.01700
Br3150     Br  0.88345782  0.56524875  0.08418562    -0.01700
Br3151     Br  0.86387747  0.93853820  0.16470868    -0.01700
Br3152     Br  0.90525848  0.93649220  0.10018348    -0.01700
C3153       C  0.52652645  0.61031781  0.38410377    -0.02800
C3154       C  0.49896521  0.59746663  0.39390308     0.06900
C3155       C  0.97140532  0.60856698  0.38215867    -0.02900
C3156       C  0.97162587  0.63134604  0.35950263    -0.02900
C3157       C  0.49918997  0.64476719  0.35030990     0.07000
C3158       C  0.52660178  0.63479785  0.36338011    -0.03100
Br3159     Br  0.56409616  0.65544647  0.35400334    -0.01700
Br3160     Br  0.56417207  0.59429123  0.39915613    -0.01700
Br3161     Br  0.93418462  0.64450885  0.34133929    -0.01700
Br3162     Br  0.93342814  0.59361139  0.39811371    -0.01700
C3163       C  0.53014384  0.86045882  0.36804912    -0.02800
C3164       C  0.50278038  0.84730623  0.35790762     0.06900
C3165       C  0.97530448  0.85505004  0.37233797    -0.02900
C3166       C  0.97493374  0.87728786  0.39559218    -0.02900
C3167       C  0.50210197  0.89148695  0.40481643     0.07000
C3168       C  0.52985716  0.88203607  0.39198632    -0.03100
Br3169     Br  0.56746867  0.89693985  0.40884281    -0.01700
Br3170     Br  0.56796543  0.84845309  0.34955776    -0.01700
Br3171     Br  0.93723674  0.88800082  0.41504738    -0.01700
Br3172     Br  0.93812835  0.83522141  0.36014436    -0.01700
C3173       C  0.48375066  0.88373400  0.15830995    -0.02800
C3174       C  0.50085450  0.85683304  0.15379932     0.06900
C3175       C  0.02020157  0.85474279  0.12822787    -0.02900
C3176       C  0.01996650  0.87761482  0.10567335    -0.02900
C3177       C  0.50176124  0.90405416  0.10934400     0.07000
C3178       C  0.48560720  0.90791134  0.13716212    -0.03100
Br3179     Br  0.46706513  0.94639313  0.14805860    -0.01700
Br3180     Br  0.45636493  0.88730231  0.19266955    -0.01700
Br3181     Br  0.04721567  0.87345898  0.07129123    -0.01700
Br3182     Br  0.04941144  0.82200487  0.12543859    -0.01700
C3183       C  0.52956910  0.61858322  0.11063183    -0.02800
C3184       C  0.50249564  0.60949518  0.09611660     0.06900
C3185       C  0.97525873  0.62443413  0.10362448    -0.02900
C3186       C  0.97423823  0.64545611  0.12798636    -0.02900
C3187       C  0.50077606  0.65222155  0.14455876     0.07000
C3188       C  0.52853117  0.63903757  0.13557903    -0.03100
Br3189     Br  0.56507533  0.64917748  0.15745489    -0.01700
Br3190     Br  0.56812885  0.60646472  0.09380985    -0.01700
Br3191     Br  0.93629939  0.66443870  0.13884160    -0.01700
Br3192     Br  0.94002371  0.61809151  0.07862347    -0.01700
O3193       O  0.50028763  0.55656180  0.58395956    -0.81100
O3194       O  0.49910274  0.54591745  0.91073703    -0.82700
O3195       O  0.55111905  0.58531935  0.49747917    -0.79700
O3196       O  0.94953175  0.58737246  0.49565200    -0.78100
O3197       O  0.91333265  0.55074035  0.49153984    -0.79800
O3198       O  0.58659124  0.54857626  0.50402637    -0.80800
O3199       O  0.49961011  0.58476811  0.94601407    -0.82100
O3200       O  0.50210110  0.59137276  0.54501926    -0.82400
Eu3201     Eu  0.49979037  0.56220336  0.49708849     2.39200
O3202       O  0.96983657  0.52979118  0.96640614    -0.89900
O3203       O  0.52909557  0.53224942  0.53018072    -0.93500
C3204       C  0.50207198  0.58416491  0.57355918     1.01200
C3205       C  0.49905070  0.57445770  0.91840112     1.01000
C3206       C  0.57881899  0.57670744  0.50165607     1.00900
C3207       C  0.92161926  0.57888102  0.49272899     0.98800
H3208       H  0.54388023  0.54164480  0.95527752     0.28600
O3209       O  0.53096419  0.52940792  0.96818184    -1.02300
H3210       H  0.95435801  0.54704299  0.54051983     0.28600
O3211       O  0.96723603  0.53354805  0.52879971    -1.04800
O3212       O  0.50310763  0.94412699  0.91692274    -0.82100
O3213       O  0.49919576  0.95557004  0.59096925    -0.81600
O3214       O  0.58677556  0.50022824  0.95030838    -0.80000
O3215       O  0.91490611  0.49636471  0.94549952    -0.83400
O3216       O  0.91014520  0.50321982  0.54672661    -0.81200
O3217       O  0.58305805  0.49932559  0.55381314    -0.79900
O3218       O  0.54831558  0.91298527  0.50466202    -0.81400
O3219       O  0.94740476  0.91413632  0.50779134    -0.83300
O3220       O  0.58430062  0.94937580  0.49879883    -0.80100
O3221       O  0.91214522  0.95174127  0.50436177    -0.82700
O3222       O  0.55058165  0.49860480  0.91306959    -0.78500
O3223       O  0.54535703  0.50245530  0.58967440    -0.78500
O3224       O  0.94555320  0.50270168  0.58510632    -0.78100
O3225       O  0.95291270  0.49293066  0.91022089    -0.81600
O3226       O  0.49882250  0.90938142  0.95581435    -0.81100
O3227       O  0.49855204  0.91655513  0.55631973    -0.79400
Eu3228     Eu  0.50087327  0.49651544  0.93806387     2.39800
Eu3229     Eu  0.49699526  0.50400236  0.56236993     2.39600
Eu3230     Eu  0.56058957  0.49960177  0.50135265     2.38400
Eu3231     Eu  0.93757494  0.50086358  0.49758449     2.39900
Eu3232     Eu  0.49812782  0.93810202  0.50414614     2.39800
O3233       O  0.96699789  0.97182315  0.53171810    -0.93800
O3234       O  0.53000911  0.96694188  0.97184687    -0.92700
C3235       C  0.50137677  0.91660042  0.92736083     1.01400
C3236       C  0.49960652  0.92690688  0.58401989     1.00100
C3237       C  0.57843934  0.49976271  0.92179771     0.99500
C3238       C  0.92468627  0.49387085  0.91762138     1.01500
C3239       C  0.91792834  0.50269115  0.57518838     1.00400
C3240       C  0.57344850  0.50055531  0.58186640     0.99200
C3241       C  0.57615744  0.92132027  0.50103584     0.99300
C3242       C  0.91964515  0.92362678  0.50803853     1.01900
H3243       H  0.54082665  0.95875181  0.54690060     0.29300
O3244       O  0.52848201  0.97103072  0.53352207    -1.06000
H3245       H  0.95635859  0.95369835  0.95768947     0.31300
O3246       O  0.96878023  0.96725781  0.96982054    -1.08500
O3247       O  0.50025523  0.70324479  0.66203779    -0.81100
O3248       O  0.49899832  0.69708235  0.83704647    -0.82700
O3249       O  0.54952530  0.66235594  0.74631330    -0.79700
O3250       O  0.94979469  0.66311802  0.75077927    -0.78100
O3251       O  0.91325436  0.70012252  0.75069568    -0.79800
O3252       O  0.58658487  0.69864685  0.74943236    -0.80800
O3253       O  0.49980320  0.66122037  0.79878098    -0.82100
O3254       O  0.49967340  0.66465789  0.69737148    -0.82400
Eu3255     Eu  0.49971513  0.68770997  0.74895237     2.39200
O3256       O  0.96889413  0.71814197  0.78069287    -0.89900
O3257       O  0.53025354  0.71979516  0.71891715    -0.93500
C3258       C  0.50006617  0.67480189  0.66966259     1.01200
C3259       C  0.49932040  0.66927574  0.82722285     1.01000
C3260       C  0.57759344  0.67064470  0.74739597     1.00900
C3261       C  0.92188482  0.67185978  0.75080712     0.98800
H3262       H  0.54312951  0.70388296  0.79319783     0.28600
O3263       O  0.53072777  0.71725868  0.78095741    -1.02300
H3264       H  0.95668827  0.70771139  0.70591676     0.28600
O3265       O  0.96932449  0.72013097  0.71899603    -1.04800
O3266       O  0.50182202  0.79635939  0.84049251    -0.82100
O3267       O  0.49841147  0.80399162  0.66657210    -0.81600
O3268       O  0.58549972  0.74597759  0.80121416    -0.80000
O3269       O  0.91344863  0.75163363  0.80016532    -0.83400
O3270       O  0.91429017  0.74899830  0.70030773    -0.81200
O3271       O  0.58613123  0.74742918  0.70057167    -0.79900
O3272       O  0.55207412  0.83616557  0.75369432    -0.81400
O3273       O  0.95234408  0.83835874  0.75235535    -0.83300
O3274       O  0.58819439  0.79877510  0.75127252    -0.80100
O3275       O  0.91503003  0.80216310  0.74952537    -0.82700
O3276       O  0.54945541  0.74549609  0.83795583    -0.78500
O3277       O  0.54992959  0.75392488  0.66447568    -0.78500
O3278       O  0.95036348  0.75257099  0.66377521    -0.78100
O3279       O  0.94958963  0.74864353  0.83669329    -0.81600
O3280       O  0.50292746  0.83494496  0.80524356    -0.81100
O3281       O  0.50203144  0.83924822  0.70502379    -0.79400
Eu3282     Eu  0.49998211  0.74765138  0.81277539     2.39800
Eu3283     Eu  0.49997359  0.75248915  0.68923786     2.39600
Eu3284     Eu  0.56171574  0.74897502  0.75088127     2.38400
Eu3285     Eu  0.93871758  0.75069169  0.75063591     2.39900
Eu3286     Eu  0.50157854  0.81199937  0.75374636     2.39800
O3287       O  0.96993052  0.78283979  0.72145930    -0.93800
O3288       O  0.53173990  0.77935671  0.78345923    -0.92700
C3289       C  0.50274852  0.82475352  0.83290669     1.01400
C3290       C  0.50015600  0.83174110  0.67658196     1.00100
C3291       C  0.57731843  0.74443489  0.82936821     0.99500
C3292       C  0.92171909  0.75093825  0.82830371     1.01500
C3293       C  0.92247600  0.75015703  0.67210260     1.00400
C3294       C  0.57781189  0.75083688  0.67258405     0.99200
C3295       C  0.57989492  0.82707946  0.75225901     0.99300
C3296       C  0.92427805  0.83024248  0.75049467     1.01900
H3297       H  0.54436283  0.79468094  0.70879783     0.29300
O3298       O  0.53160158  0.78176264  0.72116438    -1.06000
H3299       H  0.95742585  0.79310464  0.79606004     0.31300
O3300       O  0.96983153  0.78038788  0.78301689    -1.08500
O3301       O  0.83568141  0.99924961  0.69727172    -0.81100
O3302       O  0.66216776  0.00130660  0.70061744    -0.82700
O3303       O  0.74825849  0.95037425  0.66107954    -0.79700
O3304       O  0.74944392  0.55008389  0.66165330    -0.78100
O3305       O  0.74949562  0.58690855  0.69887869    -0.79800
O3306       O  0.75061328  0.91333265  0.69778833    -0.80800
O3307       O  0.69769848  0.00087478  0.66250784    -0.82100
O3308       O  0.79820225  0.99957682  0.66099613    -0.82400
Eu3309     Eu  0.74864841  0.00013291  0.68669295     2.39200
O3310       O  0.71893566  0.53142584  0.71843173    -0.89900
O3311       O  0.78028306  0.96897060  0.71684543    -0.93500
C3312       C  0.82624667  0.99936473  0.66936905     1.01200
C3313       C  0.66996698  0.00130312  0.67219965     1.01000
C3314       C  0.74939064  0.92230122  0.66972140     1.00900
C3315       C  0.74948804  0.57813936  0.67069003     0.98800
H3316       H  0.70569624  0.95632002  0.70555361     0.28600
O3317       O  0.71865414  0.96892696  0.71814022    -1.02300
H3318       H  0.79302795  0.54342439  0.70451577     0.28600
O3319       O  0.78044905  0.53080392  0.71736156    -1.04800
O3320       O  0.66452991  0.00097209  0.80032379    -0.82100
O3321       O  0.83708297  0.99839836  0.79773593    -0.81600
O3322       O  0.70006449  0.91331831  0.74859858    -0.80000
O3323       O  0.70068855  0.58773121  0.74983666    -0.83400
O3324       O  0.80099622  0.58635086  0.74791584    -0.81200
O3325       O  0.80069203  0.91279669  0.74902804    -0.79900
O3326       O  0.75056933  0.94971461  0.83586953    -0.81400
O3327       O  0.75381568  0.55036019  0.83641106    -0.83300
O3328       O  0.74923974  0.91283954  0.79867874    -0.80100
O3329       O  0.75300978  0.58718046  0.79933751    -0.82700
O3330       O  0.66347910  0.95024780  0.75054309    -0.78500
O3331       O  0.83712787  0.94992102  0.74771146    -0.78500
O3332       O  0.83732524  0.54925672  0.74938268    -0.78100
O3333       O  0.66430122  0.55058922  0.74857450    -0.81600
O3334       O  0.70139881  0.99940944  0.83696729    -0.81100
O3335       O  0.80148023  0.00027509  0.83559928    -0.79400
Eu3336     Eu  0.68882572  0.00036222  0.74985565     2.39800
Eu3337     Eu  0.81155962  0.99962355  0.74787395     2.39600
Eu3338     Eu  0.75030516  0.93790806  0.74844842     2.38400
Eu3339     Eu  0.75054504  0.56209108  0.74909378     2.39900
Eu3340     Eu  0.75120342  0.00010544  0.81111706     2.39800
O3341       O  0.78156311  0.53085766  0.77947939    -0.93800
O3342       O  0.72019910  0.96927596  0.78001097    -0.92700
C3343       C  0.67336473  0.00002885  0.82841629     1.01400
C3344       C  0.82917657  0.99902418  0.82613163     1.00100
C3345       C  0.67213148  0.92209105  0.74975159     0.99500
C3346       C  0.67277841  0.57876499  0.74906901     1.01500
C3347       C  0.82888777  0.57743241  0.74880049     1.00400
C3348       C  0.82864084  0.92176255  0.74865004     0.99200
C3349       C  0.74968057  0.92161038  0.82688967     0.99300
C3350       C  0.75401164  0.57841296  0.82745664     1.01900
H3351       H  0.79405933  0.95595917  0.79204354     0.29300
O3352       O  0.78135335  0.96875897  0.77948864    -1.06000
H3353       H  0.70763176  0.54427992  0.79376393     0.31300
O3354       O  0.71996984  0.53143174  0.78079135    -1.08500
O3355       O  0.70082121  0.66349343  0.00285075    -0.81100
O3356       O  0.69867259  0.83554250  0.99628284    -0.82700
O3357       O  0.66388546  0.74675065  0.54995547    -0.79700
O3358       O  0.66393468  0.75269196  0.95042700    -0.78100
O3359       O  0.69968050  0.74675858  0.91360744    -0.79800
O3360       O  0.70022310  0.75138493  0.58620604    -0.80800
O3361       O  0.66249578  0.79901542  0.00194388    -0.82100
O3362       O  0.66404961  0.69936225  0.99773442    -0.82400
Eu3363     Eu  0.68879828  0.74957631  0.99994512     2.39200
O3364       O  0.71872172  0.78084514  0.96847535    -0.89900
O3365       O  0.71973013  0.71882680  0.53063477    -0.93500
C3366       C  0.67280143  0.67146031  0.00078199     1.01200
C3367       C  0.67076984  0.82707918  0.99886794     1.01000
C3368       C  0.67227096  0.74932031  0.57803181     1.00900
C3369       C  0.67190323  0.74923558  0.92240349     0.98800
H3370       H  0.70635543  0.79356376  0.54352486     0.28600
O3371       O  0.71915788  0.78093836  0.53081392    -1.02300
H3372       H  0.70694795  0.70568195  0.95586454     0.28600
O3373       O  0.71944029  0.71867856  0.96850780    -1.04800
O3374       O  0.79948724  0.83647581  0.00365842    -0.82100
O3375       O  0.80106033  0.66523616  0.99483984    -0.81600
O3376       O  0.75071125  0.80016956  0.58654031    -0.80000
O3377       O  0.74888624  0.80052809  0.91234713    -0.83400
O3378       O  0.75221459  0.69989167  0.91230064    -0.81200
O3379       O  0.74870360  0.70017084  0.58704596    -0.79900
O3380       O  0.83659127  0.75291844  0.54941294    -0.81400
O3381       O  0.83560513  0.74805195  0.95002997    -0.83300
O3382       O  0.80043477  0.74806292  0.58605284    -0.80100
O3383       O  0.79972722  0.75233639  0.91307134    -0.82700
O3384       O  0.74800042  0.83693073  0.54944054    -0.78500
O3385       O  0.75098362  0.66320378  0.54994670    -0.78500
O3386       O  0.75121638  0.66270883  0.94908111    -0.78100
O3387       O  0.75062980  0.83762811  0.94931087    -0.81600
O3388       O  0.83661894  0.80059185  0.99969818    -0.81100
O3389       O  0.83724403  0.70184393  0.00057685    -0.79400
Eu3390     Eu  0.74932602  0.81203479  0.99934199     2.39800
Eu3391     Eu  0.75059778  0.68820863  0.99943329     2.39600
Eu3392     Eu  0.75020759  0.74997739  0.56158892     2.38400
Eu3393     Eu  0.74984455  0.75019184  0.93756799     2.39900
Eu3394     Eu  0.81106488  0.75090596  0.99985212     2.39800
O3395       O  0.78070504  0.71979419  0.96869254    -0.93800
O3396       O  0.78017405  0.78162269  0.53072195    -0.92700
C3397       C  0.82763353  0.82842165  0.00262794     1.01400
C3398       C  0.82890329  0.67391491  0.99701131     1.00100
C3399       C  0.74930779  0.82814346  0.57751414     0.99500
C3400       C  0.74980818  0.82872097  0.92113747     1.01500
C3401       C  0.75222627  0.67174922  0.92100910     1.00400
C3402       C  0.74967645  0.67207940  0.57813689     0.99200
C3403       C  0.82833423  0.75033075  0.57749691     0.99300
C3404       C  0.82749891  0.75024975  0.92191779     1.01900
H3405       H  0.79407679  0.70624676  0.54334742     0.29300
O3406       O  0.78129660  0.71896969  0.53080700    -1.06000
H3407       H  0.79324121  0.79449285  0.95589515     0.31300
O3408       O  0.78057606  0.78161761  0.96841394    -1.08500
C3409       C  0.77137916  0.62573149  0.64801856    -0.02800
C3410       C  0.74961617  0.60209029  0.64698516     0.06900
C3411       C  0.72769249  0.60171981  0.62348294    -0.02900
C3412       C  0.72712929  0.62519530  0.60162295    -0.02900
C3413       C  0.74943304  0.64827276  0.60205427     0.07000
C3414       C  0.77152931  0.64848526  0.62538635    -0.03100
Br3415     Br  0.80291031  0.67923726  0.62587822    -0.01700
Br3416     Br  0.80208774  0.62642410  0.67957119    -0.01700
Br3417     Br  0.69418951  0.62702668  0.57267527    -0.01700
Br3418     Br  0.69741426  0.56984994  0.62172955    -0.01700
C3419       C  0.72694622  0.87515959  0.64657637    -0.02800
C3420       C  0.74893573  0.89857591  0.64568592     0.06900
C3421       C  0.77024789  0.89925451  0.62159258    -0.02900
C3422       C  0.77134651  0.87522760  0.60034120    -0.02900
C3423       C  0.74922887  0.85210067  0.60107586     0.07000
C3424       C  0.72647810  0.85260461  0.62364952    -0.03100
Br3425     Br  0.69329096  0.82395749  0.62170761    -0.01700
Br3426     Br  0.69596699  0.87506252  0.67779468    -0.01700
Br3427     Br  0.80421613  0.87325023  0.57123379    -0.01700
Br3428     Br  0.79775245  0.93308519  0.61678453    -0.01700
C3429       C  0.77140679  0.87420838  0.85036212    -0.02800
C3430       C  0.74944144  0.89764435  0.85076761     0.06900
C3431       C  0.72749479  0.89826276  0.87427566    -0.06900
C3432       C  0.72765090  0.87579391  0.89727372    -0.02900
C3433       C  0.74986265  0.85258668  0.89710598     0.07000
C3434       C  0.77187266  0.85205912  0.87365333    -0.03100
Br3435     Br  0.80399528  0.82214753  0.87432029    -0.01700
Br3436     Br  0.80174446  0.87287513  0.81850374    -0.01700
Br3437     Br  0.69633152  0.87607220  0.92813978    -0.01700
Br3438     Br  0.69585399  0.92872585  0.87402214    -0.01700
C3439       C  0.72842731  0.62123823  0.85475946    -0.02800
C3440       C  0.75414078  0.60246380  0.85118902     0.06900
C3441       C  0.77966255  0.60699339  0.87011895    -0.02900
C3442       C  0.77951644  0.63059343  0.89213261    -0.02900
C3443       C  0.75309530  0.64808891  0.89688482     0.07000
C3444       C  0.72752760  0.64326062  0.87821727    -0.03100
Br3445     Br  0.69089669  0.66626830  0.88535197    -0.01700
Br3446     Br  0.69414677  0.61656314  0.82769453    -0.01700
Br3447     Br  0.81605846  0.64046940  0.91428381    -0.01700
Br3448     Br  0.81513064  0.58161514  0.86529145    -0.01700
C3449       C  0.85032878  0.62651580  0.76952127    -0.02800
C3450       C  0.85290007  0.60129550  0.74946246     0.06900
C3451       C  0.87874829  0.59888443  0.73049091    -0.02900
C3452       C  0.90094342  0.62204797  0.73068028    -0.02900
C3453       C  0.89822602  0.64748272  0.75054042     0.07000
C3454       C  0.87315040  0.64898164  0.77052647    -0.03100
Br3455     Br  0.87121502  0.67996680  0.80167635    -0.01700
Br3456     Br  0.81642377  0.62985322  0.79725313    -0.01700
Br3457     Br  0.93462454  0.61875424  0.70276490    -0.01700
Br3458     Br  0.88382068  0.56439733  0.70322176    -0.01700
C3459       C  0.90085606  0.87926272  0.77045846    -0.02800
C3460       C  0.90087768  0.85486195  0.74920560     0.06900
C3461       C  0.87818684  0.85403174  0.72648824    -0.02900
C3462       C  0.85379534  0.87481329  0.72717267    -0.02900
C3463       C  0.85297277  0.89826320  0.74934387     0.07000
C3464       C  0.87677680  0.90045512  0.77088664    -0.03100
Br3465     Br  0.87565036  0.93129144  0.80253652    -0.01700
Br3466     Br  0.93427761  0.88502445  0.79827361    -0.01700
Br3467     Br  0.82214898  0.87155805  0.69682250    -0.01700
Br3468     Br  0.88338454  0.82803372  0.69134404    -0.01700
C3469       C  0.59867039  0.62022895  0.76547523    -0.02800
C3470       C  0.60126220  0.64634020  0.74668084     0.06900
C3471       C  0.62695981  0.64926230  0.72754466    -0.02900
C3472       C  0.64994302  0.62689369  0.72781430    -0.02900
C3473       C  0.64850022  0.60230155  0.74855570     0.07000
C3474       C  0.62276378  0.59924985  0.76754454    -0.03100
Br3475     Br  0.62079260  0.56719914  0.79782089    -0.01700
Br3476     Br  0.56199614  0.61199130  0.78804687    -0.01700
Br3477     Br  0.68195600  0.62868404  0.69770104    -0.01700
Br3478     Br  0.62981372  0.68244114  0.69878411    -0.01700
C3479       C  0.60168422  0.87536121  0.73017811    -0.02800
C3480       C  0.60385427  0.85105560  0.75124746     0.06900
C3481       C  0.62861234  0.85026105  0.77165386    -0.02900
C3482       C  0.65086090  0.87334859  0.77105993    -0.02900
C3483       C  0.64839093  0.89795199  0.75038874     0.07000
C3484       C  0.62337152  0.89904065  0.73022934    -0.03100
Br3485     Br  0.61886609  0.93240516  0.70181055    -0.01700
Br3486     Br  0.57016966  0.87533233  0.69955929    -0.01700
Br3487     Br  0.68365354  0.87200934  0.80030710    -0.01700
Br3488     Br  0.63145728  0.81856724  0.80188494    -0.01700
C3489       C  0.86735404  0.75477840  0.65516972    -0.02800
C3490       C  0.89827012  0.74878296  0.64781964     0.06900
C3491       C  0.90543536  0.74171867  0.61676329    -0.02900
C3492       C  0.88215352  0.73920795  0.59476629    -0.02900
C3493       C  0.85248897  0.74970791  0.60151462     0.07000
C3494       C  0.84597038  0.75906526  0.63176330    -0.03100
Br3495     Br  0.80893151  0.78069909  0.64175511    -0.01700
Br3496     Br  0.85177606  0.75549706  0.69669098    -0.01700
Br3497     Br  0.89135734  0.71903180  0.55631167    -0.01700
Br3498     Br  0.94659406  0.73481619  0.60257631    -0.01700
C3499       C  0.65563824  0.74895001  0.63396666    -0.02800
C3500       C  0.64820025  0.75037116  0.60237607     0.06900
C3501       C  0.61717615  0.75402700  0.59452063    -0.02900
C3502       C  0.59445974  0.74982339  0.61668874    -0.02900
C3503       C  0.60191201  0.75131546  0.64826603     0.07000
C3504       C  0.63304779  0.75390335  0.65617105    -0.03100
Br3505     Br  0.64624034  0.76826096  0.69598821    -0.01700
Br3506     Br  0.69608075  0.73982477  0.64872668    -0.01700
Br3507     Br  0.55393562  0.74106332  0.60188480    -0.01700
Br3508     Br  0.60449317  0.76996576  0.55527208    -0.01700
C3509       C  0.63253924  0.74632411  0.84518810    -0.02800
C3510       C  0.60161921  0.74212596  0.85326237     0.06900
C3511       C  0.59455457  0.73687008  0.88458511    -0.02900
C3512       C  0.61765616  0.73762714  0.90686426    -0.02900
C3513       C  0.64746078  0.74714408  0.89890176     0.07000
C3514       C  0.65411637  0.75273373  0.86779409    -0.03100
Br3515     Br  0.69158716  0.77196782  0.85490100    -0.01700
Br3516     Br  0.64794061  0.73930690  0.80416829    -0.01700
Br3517     Br  0.60749736  0.72389165  0.94781996    -0.01700
Br3518     Br  0.55400705  0.72610833  0.89822875    -0.01700
C3519       C  0.90494796  0.75790451  0.88378192    -0.02800
C3520       C  0.89761508  0.75267594  0.85245822     0.06900
C3521       C  0.86651994  0.74887732  0.84471013    -0.02900
C3522       C  0.84520339  0.74305551  0.86767207    -0.02900
C3523       C  0.85178995  0.75087386  0.89828634     0.07000
C3524       C  0.88163619  0.76043075  0.90564816    -0.03100
Br3525     Br  0.89125069  0.77946444  0.94459925    -0.01700
Br3526     Br  0.94618698  0.76291365  0.89846396    -0.01700
Br3527     Br  0.80852882  0.72151067  0.85627490    -0.01700
Br3528     Br  0.85035501  0.75584625  0.80409650    -0.01700
C3529       C  0.87840433  0.84800670  0.52185651    -0.02800
C3530       C  0.85104503  0.85293836  0.50549863     0.06900
C3531       C  0.84498077  0.88254407  0.99431885    -0.02900
C3532       C  0.86505458  0.90668587  0.00041563    -0.02900
C3533       C  0.89462167  0.90059380  0.51148266     0.07000
C3534       C  0.90014919  0.87157424  0.52451305    -0.03100
Br3535     Br  0.93507287  0.86528092  0.55054038    -0.01700
Br3536     Br  0.88635056  0.80966062  0.54208980    -0.01700
Br3537     Br  0.84861723  0.94764032  0.99904680    -0.01700
Br3538     Br  0.81057261  0.89055945  0.96808222    -0.01700
C3539       C  0.88115868  0.65569234  0.98155056    -0.02800
C3540       C  0.85274513  0.64993144  0.49548963     0.06900
C3541       C  0.84674640  0.62057011  0.50723788    -0.02900
C3542       C  0.86765360  0.59672137  0.50300366    -0.02900
C3543       C  0.89732855  0.60293263  0.49174037     0.07000
C3544       C  0.90370130  0.63284891  0.98087204    -0.03100
Br3545     Br  0.94266570  0.64333271  0.96335406    -0.01700
Br3546     Br  0.88959515  0.69446065  0.96213916    -0.01700
Br3547     Br  0.85343946  0.55585233  0.51209376    -0.01700
Br3548     Br  0.81110891  0.61302530  0.53219016    -0.01700
C3549       C  0.59376754  0.86683034  0.49024717    -0.02800
C3550       C  0.60056217  0.89730921  0.49933625     0.06900
C3551       C  0.63136070  0.90462041  0.00620752    -0.02900
C3552       C  0.65324829  0.88134628  0.00864250    -0.02900
C3553       C  0.64670367  0.85130563  0.49848241     0.07000
C3554       C  0.61712253  0.84493393  0.48755212    -0.03100
Br3555     Br  0.60851915  0.80742623  0.46573964    -0.01700
Br3556     Br  0.55298916  0.85396921  0.47967880    -0.01700
Br3557     Br  0.69157444  0.89138331  0.02798891    -0.01700
Br3558     Br  0.64589472  0.94624771  0.01098439    -0.01700
C3559       C  0.63447231  0.59301319  0.49897770    -0.02800
C3560       C  0.60335442  0.60060075  0.50364142     0.06900
C3561       C  0.59622497  0.63152121  0.01063244    -0.02900
C3562       C  0.61938138  0.65362734  0.01246652    -0.02900
C3563       C  0.64911956  0.64691579  0.50224956     0.07000
C3564       C  0.65618619  0.61622442  0.49476283    -0.03100
Br3565     Br  0.69502201  0.60482301  0.47723196    -0.01700
Br3566     Br  0.64982101  0.55153325  0.50147439    -0.01700
Br3567     Br  0.61015147  0.69186820  0.03256503    -0.01700
Br3568     Br  0.55530828  0.64482329  0.02009076    -0.01700
C3569       C  0.87556874  0.97454107  0.89535552    -0.02800
C3570       C  0.90183391  0.49265023  0.89237274     0.06900
C3571       C  0.90539141  0.51034214  0.86556132    -0.02900
C3572       C  0.88094516  0.51403249  0.84517397    -0.02900
C3573       C  0.85380175  0.49737046  0.84932539     0.07000
C3574       C  0.85157104  0.97700462  0.87424111    -0.03100
Br3575     Br  0.81647349  0.95097043  0.87900162    -0.01700
Br3576     Br  0.87464102  0.94255239  0.92528409    -0.01700
Br3577     Br  0.88430837  0.54392741  0.81288423    -0.01700
Br3578     Br  0.94411819  0.52773126  0.85458039    -0.01700
C3579       C  0.62701781  0.52103902  0.89909642    -0.02800
C3580       C  0.60228348  0.50057088  0.89716771     0.06900
C3581       C  0.60006891  0.98168215  0.87081583    -0.02900
C3582       C  0.62394517  0.98044304  0.84936425    -0.02900
C3583       C  0.64937624  0.49980315  0.85239689     0.07000
C3584       C  0.65059766  0.52036985  0.87725758    -0.03100
Br3585     Br  0.68365845  0.54917143  0.88063431    -0.01700
Br3586     Br  0.62613715  0.55386443  0.92816973    -0.01700
Br3587     Br  0.62221908  0.95069675  0.81659243    -0.01700
Br3588     Br  0.56363847  0.95898915  0.86176632    -0.01700
C3589       C  0.61830805  0.97589892  0.60710315    -0.02800
C3590       C  0.59640387  0.49929594  0.60686291     0.06900
C3591       C  0.59649556  0.52088987  0.63094401    -0.02900
C3592       C  0.62161345  0.52297604  0.65075166    -0.02900
C3593       C  0.64502502  0.50100997  0.64930388     0.07000
C3594       C  0.64248768  0.97669032  0.62819705    -0.03100
Br3595     Br  0.67055837  0.94300989  0.62985252    -0.01700
Br3596     Br  0.61160146  0.93985558  0.58267944    -0.01700
Br3597     Br  0.62421631  0.55687038  0.67894884    -0.01700
Br3598     Br  0.56086066  0.54468758  0.64004942    -0.01700
C3599       C  0.87592350  0.52760391  0.60498528    -0.02800
C3600       C  0.89340405  0.50150714  0.59831358     0.06900
C3601       C  0.88770485  0.97421456  0.61430860    -0.02900
C3602       C  0.86724034  0.97404675  0.63902561    -0.02900
C3603       C  0.84930896  0.49994712  0.64504499     0.07000
C3604       C  0.85306371  0.52641733  0.62734655    -0.03100
Br3605     Br  0.82742454  0.56137658  0.63437712    -0.01700
Br3606     Br  0.88356538  0.56526814  0.58428503    -0.01700
Br3607     Br  0.86380501  0.93848615  0.66464408    -0.01700
Br3608     Br  0.90519043  0.93645550  0.60011859    -0.01700
C3609       C  0.52650944  0.61026883  0.88406251    -0.02800
C3610       C  0.49894395  0.59744547  0.89388488     0.06900
C3611       C  0.97138470  0.60857174  0.88216183    -0.02900
C3612       C  0.97160915  0.63135553  0.85951010    -0.02900
C3613       C  0.49917828  0.64475946  0.85030724     0.07000
C3614       C  0.52659039  0.63476157  0.86335454    -0.03100
Br3615     Br  0.56409271  0.65539428  0.85397698    -0.01700
Br3616     Br  0.56415335  0.59418094  0.89905605    -0.01700
Br3617     Br  0.93416803  0.64454807  0.84136514    -0.01700
Br3618     Br  0.93340537  0.59363762  0.89813134    -0.01700
C3619       C  0.53013584  0.86041556  0.86810325    -0.02800
C3620       C  0.50276919  0.84730401  0.85791702     0.06900
C3621       C  0.97528333  0.85508485  0.87230904    -0.02900
C3622       C  0.97490925  0.87732536  0.89556161    -0.02900
C3623       C  0.50208400  0.89148291  0.90482986     0.07000
C3624       C  0.52984419  0.88199387  0.89203975    -0.03100
Br3625     Br  0.56745140  0.89686246  0.90893744    -0.01700
Br3626     Br  0.56796833  0.84835142  0.84967479    -0.01700
Br3627     Br  0.93719843  0.88809994  0.91495472    -0.01700
Br3628     Br  0.93810129  0.83529049  0.86007893    -0.01700
C3629       C  0.48373947  0.88371052  0.65829148    -0.02800
C3630       C  0.50085402  0.85681569  0.65378494     0.06900
C3631       C  0.02019751  0.85472673  0.62820997    -0.02900
C3632       C  0.01995956  0.87759977  0.60565626    -0.02900
C3633       C  0.50174761  0.90403446  0.60932579     0.07000
C3634       C  0.48558428  0.90788499  0.63713916    -0.03100
Br3635     Br  0.46700281  0.94635268  0.64801708    -0.01700
Br3636     Br  0.45635343  0.88727276  0.69265138    -0.01700
Br3637     Br  0.04721188  0.87345161  0.57127495    -0.01700
Br3638     Br  0.04940355  0.82198653  0.62541029    -0.01700
C3639       C  0.52957962  0.61854366  0.61066080    -0.02800
C3640       C  0.50251126  0.60947703  0.59612297     0.06900
C3641       C  0.97528168  0.62444302  0.60360323    -0.02900
C3642       C  0.97425488  0.64545520  0.62797358    -0.02900
C3643       C  0.50078362  0.65219765  0.64457082     0.07000
C3644       C  0.52853677  0.63899527  0.63561038    -0.03100
Br3645     Br  0.56507281  0.64910950  0.65751153    -0.01700
Br3646     Br  0.56814297  0.60641881  0.59385133    -0.01700
Br3647     Br  0.93631835  0.66445457  0.63880616    -0.01700
Br3648     Br  0.94007544  0.61816564  0.57854224    -0.01700
loop_ 
_geom_bond_atom_site_label_1 
_geom_bond_atom_site_label_2 
_geom_bond_distance 
_geom_bond_site_symmetry_2 
_ccdc_geom_bond_type 
O1           C12   1.296       .  A
O1          Eu37   2.490   1_455  S
O2           C13   1.294       .  A
O2          Eu36   2.478   1_645  S
O3           C14   1.293   1_556  A
O3           Eu9   2.481   1_455  S
O4           C15   1.293       .  A
O4        Eu1833   2.478       .  S
O5           C15   1.287       .  A
O5          Eu39   2.449       .  S
O6           C14   1.284       .  A
O6          Eu38   2.435   1_545  S
O7           C13   1.289       .  A
O7         Eu465   2.446       .  S
O8           C12   1.289       .  A
O8           Eu9   2.454   1_454  S
Eu9        O1828   2.478       .  S
Eu9         O463   2.446       .  S
Eu9          O11   2.347   1_656  S
Eu9        O1843   2.361   1_556  S
Eu9        O2290   2.357       .  S
Eu9         O473   2.355   1_655  S
O10       Eu2289   2.357       .  S
O10        Eu495   2.346       .  S
O10       Eu1860   2.351   1_545  S
O11         Eu37   2.352   1_455  S
O11         Eu38   2.357   1_545  S
C12         C448   1.482       .  S
C13         C418   1.474       .  S
C14         C368   1.508       .  S
C15         C351   1.504       .  S
H16          O17   0.966       .  S
O17         Eu36   2.359   1_545  S
O17        Eu465   2.355   1_455  S
O17        Eu494   2.353   1_545  S
H18          O19   0.966       .  S
O19         Eu39   2.370   1_554  S
O19       Eu1833   2.361   1_554  S
O19       Eu1861   2.361       .  S
O20          C43   1.293       .  A
O20        Eu948   2.474       .  S
O21          C44   1.291       .  A
O21        Eu949   2.469       .  S
O22          C45   1.301   1_545  A
O22        Eu494   2.515   1_545  S
O23          C46   1.298       .  A
O23        Eu495   2.497   1_565  S
O24          C47   1.292       .  A
O24         Eu39   2.469   1_554  S
O25          C48   1.299   1_565  A
O25         Eu38   2.501       .  S
O26          C49   1.292       .  A
O26         Eu40   2.474   1_455  S
O27          C50   1.294       .  A
O27       Eu1864   2.478       .  S
O28          C49   1.285   1_556  A
O28        Eu950   2.439   1_556  S
O29          C50   1.286       .  A
O29        Eu951   2.446   1_554  S
O30          C45   1.289       .  A
O30         Eu36   2.453       .  S
O31          C48   1.289       .  A
O31         Eu37   2.448   1_455  S
O32          C47   1.294       .  A
O32       Eu1861   2.479       .  S
O33          C46   1.288       .  A
O33       Eu1860   2.447       .  S
O34          C43   1.290   1_655  A
O34        Eu496   2.458       .  S
O35          C44   1.293       .  A
O35         Eu40   2.473       .  S
Eu36        O932   2.474       .  S
Eu36       O1857   2.447   1_455  S
Eu36       O1834   2.351   1_465  S
Eu36       O2790   2.364   1_455  S
Eu36        O954   2.352       .  S
Eu37        O933   2.469   1_545  S
Eu37       O1856   2.479       .  S
Eu37       O1843   2.361       .  S
Eu37       O2777   2.351   1_545  S
Eu37        O964   2.366   1_645  S
Eu38        O478   2.515   1_564  S
Eu38        O940   2.439   1_554  S
Eu38        O473   2.353   1_564  S
Eu38        O964   2.359       .  S
Eu38       O1410   2.351   1_554  S
Eu39        O479   2.497   1_545  S
Eu39        O941   2.446   1_546  S
Eu39        O466   2.346       .  S
Eu39        O953   2.356   1_546  S
Eu39       O1422   2.352   1_545  S
Eu40       O1851   2.478       .  S
Eu40        O490   2.458   1_554  S
Eu40         O52   2.349   1_655  S
Eu40       O1865   2.348       .  S
Eu40       O2334   2.363   1_554  S
Eu40        O498   2.363   1_654  S
O41       Eu2773   2.351       .  S
O41        Eu951   2.356   1_554  S
O41       Eu1864   2.348       .  S
O42        Eu948   2.352       .  S
O42       Eu1406   2.351       .  S
O42        Eu496   2.363   1_455  S
C43         C431   1.475       .  S
C44         C441   1.499   1_655  S
C45         C388   1.506   1_565  S
C46         C378   1.497       .  S
C47         C408   1.482       .  S
C48         C398   1.492   1_545  S
C49         C358   1.508   1_554  S
C50         C341   1.504       .  S
H51          O52   0.965       .  S
O52        Eu949   2.366   1_455  S
O52        Eu950   2.359       .  S
H53          O54   0.966       .  S
O54       Eu2772   2.364       .  S
O54       Eu1407   2.352       .  S
O54       Eu2320   2.363       .  S
O55          C66   1.291       .  A
O55         Eu91   2.460   1_455  S
O56          C67   1.291       .  A
O56         Eu90   2.460       .  S
O57          C68   1.292       .  A
O57         Eu63   2.466   1_455  S
O58          C69   1.290       .  A
O58       Eu1887   2.453       .  S
O59          C69   1.296       .  A
O59         Eu93   2.484       .  S
O60          C68   1.292       .  A
O60         Eu92   2.464       .  S
O61          C67   1.293       .  A
O61         Eu63   2.473       .  S
O62          C66   1.293   1_655  A
O62         Eu63   2.469       .  S
Eu63       O1882   2.453       .  S
Eu63         O65   2.351   1_655  S
Eu63         O71   2.345   1_655  S
Eu63       O1897   2.356       .  S
Eu63       O1888   2.355       .  S
O64         Eu93   2.356       .  S
O64       Eu1887   2.355       .  S
O64       Eu1914   2.348       .  S
O65         Eu91   2.354   1_455  S
O65         Eu92   2.347       .  S
C66         C451   1.476       .  S
C67         C421   1.477       .  S
C68         C278   1.492       .  S
C69         C261   1.493       .  S
H70          O71   0.966       .  S
O71         Eu92   2.354       .  S
O71         Eu90   2.354   1_455  S
H72          O73   0.966       .  S
O73         Eu93   2.350       .  S
O73       Eu1887   2.356       .  S
O73       Eu1915   2.355       .  S
O74          C97   1.289       .  A
O74         Eu90   2.452   1_455  S
O75          C98   1.293   1_655  A
O75         Eu91   2.469       .  S
O76          C99   1.285       .  A
O76         Eu92   2.444       .  S
O77         C100   1.285       .  A
O77         Eu93   2.437       .  S
O78         C101   1.287       .  A
O78         Eu93   2.453       .  S
O79         C102   1.288       .  A
O79         Eu92   2.451       .  S
O80         C103   1.292       .  A
O80         Eu94   2.467       .  S
O81         C104   1.291       .  A
O81       Eu1918   2.462       .  S
O82         C103   1.294       .  A
O82         Eu92   2.475       .  S
O83         C104   1.297       .  A
O83         Eu93   2.487       .  S
O84          C99   1.286       .  A
O84         Eu90   2.448   1_455  S
O85         C102   1.288       .  A
O85         Eu91   2.457   1_455  S
O86         C101   1.288       .  A
O86       Eu1915   2.457       .  S
O87         C100   1.288       .  A
O87       Eu1914   2.458       .  S
O88          C97   1.291       .  A
O88         Eu94   2.465       .  S
O89          C98   1.289       .  A
O89         Eu94   2.447       .  S
Eu90       O1911   2.458       .  S
Eu90         O96   2.355   1_655  S
Eu90       O1888   2.348       .  S
Eu90       O1932   2.353       .  S
Eu91       O1910   2.457       .  S
Eu91        O106   2.352   1_655  S
Eu91       O1897   2.355       .  S
Eu91       O1919   2.345       .  S
Eu92        O106   2.353       .  S
Eu92         O96   2.354       .  S
Eu93         O95   2.350       .  S
Eu93        O108   2.361       .  S
Eu94       O1905   2.462   1_455  S
Eu94        O106   2.351       .  S
Eu94         O96   2.350       .  S
Eu94       O1919   2.359   1_455  S
Eu94       O1932   2.352   1_455  S
O95       Eu1915   2.345       .  S
O95       Eu1918   2.359       .  S
C97         C428   1.472       .  S
C98         C438   1.487       .  S
C99         C318   1.502       .  S
C100        C328   1.501       .  S
C101        C298   1.508       .  S
C102        C311   1.504       .  S
C103        C288   1.491       .  S
C104        C268   1.495       .  S
H105        O106   0.965       .  S
H107        O108   0.966       .  S
O108      Eu1914   2.353       .  S
O108      Eu1918   2.352       .  S
O109        C120   1.290       .  A
O109       Eu145   2.456       .  S
O110        C121   1.290       .  A
O110       Eu144   2.456       .  S
O111        C122   1.289       .  A
O111       Eu117   2.448       .  S
O112        C123   1.290       .  A
O112      Eu1029   2.451       .  S
O113        C123   1.291       .  A
O113       Eu147   2.455       .  S
O114        C122   1.292       .  A
O114       Eu146   2.461       .  S
O115        C121   1.295       .  A
O115       Eu117   2.486       .  S
O116        C120   1.291       .  A
O116       Eu117   2.459       .  S
Eu117      O1024   2.451       .  S
Eu117       O119   2.360       .  S
Eu117       O125   2.350       .  S
Eu117      O1039   2.359       .  S
Eu117      O1030   2.348       .  S
O118       Eu147   2.354       .  S
O118      Eu1029   2.348       .  S
O118      Eu1056   2.349       .  S
O119       Eu145   2.354       .  S
O119       Eu146   2.350       .  S
C120       C1323   1.473       .  S
C121       C1313   1.489       .  S
C122        C228   1.476       .  S
C123        C218   1.478       .  S
H124        O125   0.966       .  S
O125       Eu146   2.361       .  S
O125       Eu144   2.354       .  S
H126        O127   0.965       .  S
O127       Eu147   2.353       .  S
O127      Eu1029   2.359       .  S
O127      Eu1057   2.356   1_545  S
O128        C151   1.290       .  A
O128       Eu144   2.454       .  S
O129        C152   1.291       .  A
O129       Eu145   2.457       .  S
O130        C153   1.292       .  A
O130       Eu146   2.465       .  S
O131        C154   1.293       .  A
O131       Eu147   2.471       .  S
O132        C155   1.292       .  A
O132       Eu147   2.468       .  S
O133        C156   1.295       .  A
O133       Eu146   2.482       .  S
O134        C157   1.292       .  A
O134       Eu148   2.463       .  S
O135        C158   1.291       .  A
O135      Eu1060   2.464       .  S
O136        C157   1.292       .  A
O136       Eu146   2.461       .  S
O137        C158   1.291       .  A
O137       Eu147   2.457       .  S
O138        C153   1.292       .  A
O138       Eu144   2.464       .  S
O139        C156   1.290       .  A
O139       Eu145   2.453       .  S
O140        C155   1.290       .  A
O140      Eu1057   2.454   1_545  S
O141        C154   1.290       .  A
O141      Eu1056   2.454       .  S
O142        C151   1.293       .  A
O142       Eu148   2.472       .  S
O143        C152   1.292       .  A
O143       Eu148   2.464       .  S
Eu144      O1053   2.454       .  S
Eu144       O150   2.351       .  S
Eu144      O1030   2.349       .  S
Eu144      O1074   2.358       .  S
Eu145      O1052   2.454       .  S
Eu145       O160   2.351       .  S
Eu145      O1039   2.356       .  S
Eu145      O1061   2.350       .  S
Eu146       O160   2.353       .  S
Eu146       O150   2.355       .  S
Eu147       O149   2.352       .  S
Eu147       O162   2.358       .  S
Eu148      O1047   2.464       .  S
Eu148       O160   2.358       .  S
Eu148       O150   2.353       .  S
Eu148      O1061   2.353       .  S
Eu148      O1074   2.358       .  S
O149      Eu1057   2.350   1_545  S
O149      Eu1060   2.353       .  S
C151       C1303   1.490       .  S
C152       C1293   1.489       .  S
C153        C291   1.489       .  S
C154        C281   1.488       .  S
C155        C258   1.489       .  S
C156        C271   1.488       .  S
C157        C238   1.484       .  S
C158        C248   1.477       .  S
H159        O160   0.966       .  S
H161        O162   0.966       .  S
O162      Eu1056   2.358       .  S
O162      Eu1060   2.358       .  S
O163        C174   1.288       .  A
O163       Eu199   2.454       .  S
O164        C175   1.291       .  A
O164       Eu198   2.466       .  S
O165        C176   1.288       .  A
O165       Eu627   2.452   1_554  S
O166        C177   1.284       .  A
O166       Eu171   2.433       .  S
O167        C177   1.289       .  A
O167       Eu201   2.455       .  S
O168        C176   1.288       .  A
O168       Eu200   2.455       .  S
O169        C175   1.290       .  A
O169       Eu171   2.459       .  S
O170        C174   1.290       .  A
O170       Eu171   2.458       .  S
Eu171       O621   2.452       .  S
Eu171       O181   2.354       .  S
Eu171       O172   2.351       .  S
Eu171       O629   2.345       .  S
Eu171       O635   2.345       .  S
O172       Eu201   2.347       .  S
O172       Eu198   2.346       .  S
O173       Eu200   2.344       .  S
O173       Eu627   2.345   1_554  S
O173       Eu655   2.347   1_554  S
C174        C827   1.500       .  S
C175        C817   1.502       .  S
C176        C308   1.505       .  S
C177        C321   1.493       .  S
H178        O179   0.966       .  S
O179       Eu200   2.355       .  S
O179       Eu627   2.345   1_554  S
O179       Eu654   2.352   1_554  S
H180        O181   0.965       .  S
O181       Eu199   2.349       .  S
O181       Eu201   2.356       .  S
O182        C205   1.292       .  A
O182       Eu198   2.466       .  S
O183        C206   1.290       .  A
O183       Eu199   2.452       .  S
O184        C207   1.290       .  A
O184       Eu200   2.452       .  S
O185        C208   1.293       .  A
O185       Eu201   2.470       .  S
O186        C209   1.292       .  A
O186       Eu201   2.464       .  S
O187        C210   1.290       .  A
O187       Eu200   2.454       .  S
O188        C211   1.287       .  A
O188       Eu658   2.445   1_554  S
O189        C212   1.285       .  A
O189       Eu202   2.437       .  S
O190        C211   1.291       .  A
O190       Eu200   2.464       .  S
O191        C212   1.289       .  A
O191       Eu201   2.450       .  S
O192        C207   1.290       .  A
O192       Eu654   2.446   1_554  S
O193        C210   1.293       .  A
O193       Eu655   2.470   1_554  S
O194        C209   1.293       .  A
O194       Eu199   2.467       .  S
O195        C208   1.292       .  A
O195       Eu198   2.464       .  S
O196        C205   1.288       .  A
O196       Eu202   2.451       .  S
O197        C206   1.287       .  A
O197       Eu202   2.441       .  S
Eu198       O648   2.446       .  S
Eu198       O216   2.345       .  S
Eu198       O635   2.352       .  S
Eu198       O660   2.352       .  S
Eu199       O649   2.470       .  S
Eu199       O203   2.345       .  S
Eu199       O629   2.347       .  S
Eu199       O670   2.351       .  S
Eu200       O214   2.352       .  S
Eu200       O204   2.346       .  S
Eu201       O203   2.345       .  S
Eu201       O216   2.355       .  S
Eu202       O644   2.446       .  S
Eu202       O203   2.345       .  S
Eu202       O216   2.351       .  S
Eu202       O670   2.351       .  S
Eu202       O660   2.341       .  S
O204       Eu654   2.352   1_554  S
O204       Eu658   2.341   1_554  S
C205        C794   1.495       .  S
C206        C804   1.489       .  S
C207        C231   1.469       .  S
C208        C241   1.485       .  S
C209        C251   1.477       .  S
C210        C221   1.480       .  S
C211        C301   1.497       .  S
C212        C331   1.489       .  S
H213        O214   0.966       .  S
O214       Eu655   2.350   1_554  S
O214       Eu658   2.351   1_554  S
H215        O216   0.966       .  S
C217        C218   1.413       .  A
C217        C222   1.408       .  A
C217       Br224   1.935       .  S
C218        C219   1.412       .  A
C219        C220   1.407       .  A
C219       Br226   1.934       .  S
C220        C221   1.411       .  A
C220       Br225   1.930       .  S
C221        C222   1.412       .  A
C222       Br223   1.932       .  S
C227        C228   1.413       .  A
C227        C232   1.406       .  A
C227       Br234   1.932       .  S
C228        C229   1.413       .  A
C229        C230   1.403       .  A
C229       Br236   1.928       .  S
C230        C231   1.407       .  A
C230       Br235   1.932       .  S
C231        C232   1.408       .  A
C232       Br233   1.930       .  S
C237        C238   1.412       .  A
C237        C242   1.410       .  A
C237       Br244   1.933       .  S
C238        C239   1.413       .  A
C239        C240   1.410       .  A
C239       Br246   1.932       .  S
C240        C241   1.413       .  A
C240       Br245   1.932       .  S
C241        C242   1.413       .  A
C242       Br243   1.931       .  S
C247        C248   1.410       .  A
C247        C252   1.407       .  A
C247       Br254   1.932       .  S
C248        C249   1.412       .  A
C249        C250   1.411       .  A
C249       Br256   1.932       .  S
C250        C251   1.411       .  A
C250       Br255   1.930       .  S
C251        C252   1.409       .  A
C252       Br253   1.930       .  S
C257        C258   1.413       .  A
C257        C262   1.409       .  A
C257       Br264   1.931       .  S
C258        C259   1.414       .  A
C259        C260   1.410       .  A
C259       Br266   1.935       .  S
C260        C261   1.416       .  A
C260       Br265   1.929       .  S
C261        C262   1.412       .  A
C262       Br263   1.922       .  S
C267        C268   1.414       .  A
C267        C272   1.412       .  A
C267       Br274   1.929       .  S
C268        C269   1.412       .  A
C269        C270   1.410       .  A
C269       Br276   1.924       .  S
C270        C271   1.411       .  A
C270       Br275   1.933       .  S
C271        C272   1.415       .  A
C272       Br273   1.932       .  S
C277        C278   1.416       .  A
C277        C282   1.409       .  A
C277       Br284   1.930       .  S
C278        C279   1.415       .  A
C279        C280   1.411       .  A
C279       Br286   1.930       .  S
C280        C281   1.412       .  A
C280       Br285   1.933       .  S
C281        C282   1.414       .  A
C282       Br283   1.936       .  S
C287        C288   1.414       .  A
C287        C292   1.411       .  A
C287       Br294   1.932       .  S
C288        C289   1.412       .  A
C289        C290   1.410       .  A
C289       Br296   1.925       .  S
C290        C291   1.414       .  A
C290       Br295   1.933       .  S
C291        C292   1.415       .  A
C292       Br293   1.933       .  S
C297        C298   1.426       .  A
C297        C302   1.406       .  A
C297       Br304   1.942       .  S
C298        C299   1.428       .  A
C299        C300   1.412       .  A
C299       Br306   1.943       .  S
C300        C301   1.418       .  A
C300       Br305   1.941       .  S
C301        C302   1.414       .  A
C302       Br303   1.939       .  S
C307        C308   1.422       .  A
C307        C312   1.408       .  A
C307       Br314   1.941       .  S
C308        C309   1.421       .  A
C309        C310   1.407       .  A
C309       Br316   1.939       .  S
C310        C311   1.422       .  A
C310       Br315   1.940       .  S
C311        C312   1.422       .  A
C312       Br313   1.940       .  S
C317        C318   1.421       .  A
C317        C322   1.401       .  A
C317       Br324   1.942       .  S
C318        C319   1.425       .  A
C319        C320   1.411       .  A
C319       Br326   1.945       .  S
C320        C321   1.423       .  A
C320       Br325   1.944       .  S
C321        C322   1.414       .  A
C322       Br323   1.940       .  S
C327        C328   1.426       .  A
C327        C332   1.409       .  A
C327       Br334   1.943       .  S
C328        C329   1.423       .  A
C329        C330   1.400       .  A
C329       Br336   1.940       .  S
C330        C331   1.412       .  A
C330       Br335   1.938       .  S
C331        C332   1.419       .  A
C332       Br333   1.942       .  S
C337        C338   1.421       .  A
C337        C342   1.414       .  A
C337       Br344   1.934       .  S
C338        C661   1.495       .  S
C338        C795   1.414   1_554  A
C339        C340   1.404       .  A
C339        C794   1.414       .  A
C339       Br346   1.937       .  S
C340        C797   1.418       .  A
C340       Br345   1.937       .  S
C341        C342   1.416       .  A
C341        C796   1.418       .  A
C342       Br343   1.937       .  S
C347        C352   1.412       .  A
C347        C804   1.416       .  A
C347       Br354   1.938       .  S
C348        C662   1.489       .  S
C348        C349   1.412   1_556  A
C348        C803   1.416       .  A
C349        C350   1.406       .  A
C349       Br356   1.943       .  S
C350        C351   1.426   1_554  A
C350       Br355   1.940       .  S
C351        C808   1.423       .  A
C352        C807   1.423       .  A
C352       Br353   1.938       .  S
C357        C358   1.424       .  A
C357        C362   1.413       .  A
C357       Br364   1.941       .  S
C358        C815   1.427   1_556  A
C359        C360   1.409       .  A
C359        C814   1.427       .  A
C359       Br366   1.944       .  S
C360        C817   1.417       .  A
C360       Br365   1.941       .  S
C361        C631   1.502       .  S
C361        C362   1.418       .  A
C361        C816   1.417   1_556  A
C362       Br363   1.935       .  S
C367        C368   1.428   1_556  A
C367        C372   1.410       .  A
C367       Br374   1.943   1_556  S
C368        C825   1.423       .  A
C369        C370   1.410       .  A
C369        C824   1.423       .  A
C369       Br376   1.942       .  S
C370        C827   1.417       .  A
C370       Br375   1.933       .  S
C371        C630   1.500       .  S
C371        C372   1.418   1_554  A
C371        C826   1.417       .  A
C372       Br373   1.942       .  S
C377        C382   1.410       .  A
C377       C1290   1.411       .  A
C377       Br384   1.922       .  S
C378        C379   1.417   1_565  A
C378       C1289   1.411       .  A
C379        C380   1.410       .  A
C379       Br386   1.932       .  S
C380        C381   1.415   1_545  A
C380       Br385   1.935       .  S
C381       C1064   1.489       .  S
C381       C1294   1.415       .  A
C382       C1293   1.415       .  A
C382       Br383   1.935       .  S
C387        C388   1.415       .  A
C387        C392   1.413       .  A
C387       Br394   1.917       .  S
C388       C1301   1.420   1_545  A
C389        C390   1.412       .  A
C389       C1300   1.420       .  A
C389       Br396   1.931       .  S
C390       C1303   1.413       .  A
C390       Br395   1.936       .  S
C391       C1063   1.490   1_565  S
C391        C392   1.411   1_565  A
C391       C1302   1.413       .  A
C392       Br393   1.934       .  S
C397        C402   1.412       .  A
C397       C1310   1.409       .  A
C397       Br404   1.927       .  S
C398        C399   1.414   1_565  A
C398       C1309   1.409       .  A
C399        C400   1.410       .  A
C399       Br406   1.928       .  S
C400        C401   1.414       .  A
C400       Br405   1.931       .  S
C401       C1033   1.489       .  S
C401       C1314   1.412   1_545  A
C402       C1313   1.412       .  A
C402       Br403   1.929       .  S
C407        C408   1.409       .  A
C407        C412   1.406       .  A
C407       Br414   1.915       .  S
C408       C1321   1.410   1_545  A
C409        C410   1.409       .  A
C409       C1320   1.410       .  A
C409       Br416   1.927       .  S
C410       C1323   1.408       .  A
C410       Br415   1.928       .  S
C411       C1032   1.473       .  S
C411        C412   1.406   1_565  A
C411       C1322   1.408       .  A
C412       Br413   1.929       .  S
C417        C418   1.408   1_455  A
C417        C422   1.407       .  A
C417       Br424   1.922       .  S
C418       C2243   1.408       .  A
C419        C420   1.409       .  A
C419       C2242   1.408       .  A
C419       Br426   1.931       .  S
C420       C2245   1.410       .  A
C420       Br425   1.924       .  S
C421        C422   1.409   1_655  A
C421       C2244   1.410       .  A
C422       Br423   1.930       .  S
C427        C428   1.409       .  A
C427        C432   1.409       .  A
C427       Br434   1.927       .  S
C428       C2253   1.408   1_455  A
C429        C430   1.406       .  A
C429       C2252   1.408       .  A
C429       Br436   1.931       .  S
C430       C2255   1.409       .  A
C430       Br435   1.926       .  S
C431        C432   1.409       .  A
C431       C2254   1.409   1_455  A
C432       Br433   1.929       .  S
C437        C438   1.413   1_655  A
C437        C442   1.411       .  A
C437       Br444   1.934       .  S
C438       C2263   1.410       .  A
C439        C440   1.409       .  A
C439       C2262   1.410       .  A
C439       Br446   1.932       .  S
C440       C2265   1.419       .  A
C440       Br445   1.934       .  S
C441        C442   1.420   1_455  A
C441       C2264   1.419       .  A
C442       Br443   1.933       .  S
C447        C448   1.410       .  A
C447        C452   1.411       .  A
C447       Br454   1.928       .  S
C448       C2273   1.407   1_455  A
C449        C450   1.407       .  A
C449       C2272   1.407       .  A
C449       Br456   1.921       .  S
C450       C2275   1.409       .  A
C450       Br455   1.928       .  S
C451        C452   1.410       .  A
C451       C2274   1.409   1_455  A
C452       Br453   1.927       .  S
O457        C468   1.296       .  A
O457       Eu493   2.490   1_455  S
O458        C469   1.294       .  A
O458       Eu492   2.478   1_645  S
O459        C470   1.293       .  A
O459       Eu465   2.481   1_455  S
O460        C471   1.293       .  A
O460      Eu2289   2.478       .  S
O461        C471   1.287       .  A
O461       Eu495   2.449       .  S
O462        C470   1.284       .  A
O462       Eu494   2.435   1_545  S
O463        C469   1.289       .  A
O464        C468   1.289       .  A
O464       Eu465   2.454   1_455  S
Eu465      O2284   2.478       .  S
Eu465      O2299   2.361       .  S
Eu465       O467   2.347   1_655  S
Eu465      O1834   2.357       .  S
O466      Eu1833   2.357       .  S
O466      Eu2316   2.351   1_545  S
O467       Eu493   2.352   1_455  S
O467       Eu494   2.357   1_545  S
C468        C904   1.482       .  S
C469        C874   1.474       .  S
C470        C824   1.508       .  S
C471        C807   1.504       .  S
H472        O473   0.966       .  S
O473       Eu492   2.359   1_545  S
H474        O475   0.966       .  S
O475      Eu2289   2.361       .  S
O475      Eu2317   2.361       .  S
O475       Eu495   2.370       .  S
O476        C499   1.293       .  A
O476      Eu1404   2.474       .  S
O477        C500   1.291       .  A
O477      Eu1405   2.469       .  S
O478        C501   1.301   1_545  A
O479        C502   1.298       .  A
O480        C503   1.292       .  A
O480       Eu495   2.469       .  S
O481        C504   1.299   1_565  A
O481       Eu494   2.501       .  S
O482        C505   1.292       .  A
O482       Eu496   2.474   1_455  S
O483        C506   1.294       .  A
O483      Eu2320   2.478       .  S
O484        C505   1.285       .  A
O484      Eu1406   2.439       .  S
O485        C506   1.286       .  A
O485      Eu1407   2.446       .  S
O486        C501   1.289       .  A
O486       Eu492   2.453       .  S
O487        C504   1.289       .  A
O487       Eu493   2.448   1_455  S
O488        C503   1.294       .  A
O488      Eu2317   2.479       .  S
O489        C502   1.288       .  A
O489      Eu2316   2.447       .  S
O490        C499   1.290   1_655  A
O491        C500   1.293       .  A
O491       Eu496   2.473       .  S
Eu492      O1388   2.474       .  S
Eu492      O2313   2.447   1_455  S
Eu492      O2290   2.351   1_465  S
Eu492      O3246   2.364   1_455  S
Eu492      O1410   2.352       .  S
Eu493      O1389   2.469   1_545  S
Eu493      O2312   2.479       .  S
Eu493      O2299   2.361       .  S
Eu493      O3233   2.351   1_545  S
Eu493      O1420   2.366   1_645  S
Eu494      O1396   2.439       .  S
Eu494      O1420   2.359       .  S
Eu494       O954   2.351       .  S
Eu495      O1397   2.446   1_545  S
Eu495      O1409   2.356   1_545  S
Eu495       O966   2.352   1_545  S
Eu496      O2307   2.478       .  S
Eu496      O2321   2.348       .  S
Eu496       O508   2.349   1_655  S
Eu496      O1878   2.363       .  S
O497      Eu3229   2.351       .  S
O497      Eu1407   2.356       .  S
O497      Eu2320   2.348       .  S
O498      Eu1404   2.352       .  S
O498       Eu950   2.351   1_556  S
C499        C887   1.475       .  S
C500        C897   1.499   1_655  S
C501        C844   1.506   1_565  S
C502        C834   1.497       .  S
C503        C864   1.482       .  S
C504        C854   1.492   1_545  S
C505        C814   1.508       .  S
C506        C797   1.504       .  S
H507        O508   0.965       .  S
O508      Eu1405   2.366   1_455  S
O508      Eu1406   2.359       .  S
H509        O510   0.966       .  S
O510      Eu3228   2.364       .  S
O510       Eu951   2.352       .  S
O510      Eu1864   2.363   1_556  S
O511        C522   1.291       .  A
O511       Eu547   2.461   1_455  S
O512        C523   1.291       .  A
O512       Eu546   2.461       .  S
O513        C524   1.292       .  A
O513       Eu519   2.466   1_455  S
O514        C525   1.290       .  A
O514      Eu2343   2.454       .  S
O515        C525   1.296       .  A
O515       Eu549   2.484       .  S
O516        C524   1.292       .  A
O516       Eu548   2.464       .  S
O517        C523   1.293       .  A
O517       Eu519   2.473       .  S
O518        C522   1.293   1_655  A
O518       Eu519   2.469       .  S
Eu519      O2338   2.454       .  S
Eu519      O2353   2.356       .  S
Eu519       O521   2.351   1_655  S
Eu519      O2344   2.355       .  S
Eu519       O527   2.345   1_655  S
O520      Eu2343   2.355       .  S
O520       Eu549   2.356       .  S
O520      Eu2370   2.348       .  S
O521       Eu547   2.354   1_455  S
O521       Eu548   2.347       .  S
C522        C907   1.476       .  S
C523        C877   1.477       .  S
C524        C734   1.492       .  S
C525        C717   1.493       .  S
H526        O527   0.966       .  S
O527       Eu548   2.354       .  S
O527       Eu546   2.354   1_455  S
H528        O529   0.966       .  S
O529      Eu2343   2.356       .  S
O529      Eu2371   2.355       .  S
O529       Eu549   2.350       .  S
O530        C553   1.289       .  A
O530       Eu546   2.452   1_455  S
O531        C554   1.293   1_655  A
O531       Eu547   2.469       .  S
O532        C555   1.285       .  A
O532       Eu548   2.444       .  S
O533        C556   1.285       .  A
O533       Eu549   2.437       .  S
O534        C557   1.287       .  A
O534       Eu549   2.453       .  S
O535        C558   1.288       .  A
O535       Eu548   2.451       .  S
O536        C559   1.292       .  A
O536       Eu550   2.467       .  S
O537        C560   1.291       .  A
O537      Eu2374   2.462       .  S
O538        C559   1.294       .  A
O538       Eu548   2.475       .  S
O539        C560   1.297       .  A
O539       Eu549   2.487       .  S
O540        C555   1.287       .  A
O540       Eu546   2.448   1_455  S
O541        C558   1.288       .  A
O541       Eu547   2.457   1_455  S
O542        C557   1.288       .  A
O542      Eu2371   2.457       .  S
O543        C556   1.288       .  A
O543      Eu2370   2.458       .  S
O544        C553   1.292       .  A
O544       Eu550   2.465       .  S
O545        C554   1.289       .  A
O545       Eu550   2.447       .  S
Eu546      O2367   2.458       .  S
Eu546      O2344   2.348       .  S
Eu546      O2388   2.353       .  S
Eu546       O552   2.355   1_655  S
Eu547      O2366   2.457       .  S
Eu547      O2353   2.355       .  S
Eu547      O2375   2.345       .  S
Eu547       O562   2.352   1_655  S
Eu548       O562   2.353       .  S
Eu548       O552   2.354       .  S
Eu549       O551   2.350       .  S
Eu549       O564   2.361       .  S
Eu550      O2361   2.462   1_455  S
Eu550      O2375   2.359   1_455  S
Eu550       O562   2.352       .  S
Eu550      O2388   2.352   1_455  S
Eu550       O552   2.350       .  S
O551      Eu2371   2.345       .  S
O551      Eu2374   2.359       .  S
C553        C884   1.472       .  S
C554        C894   1.487       .  S
C555        C774   1.502       .  S
C556        C784   1.501       .  S
C557        C754   1.508       .  S
C558        C767   1.504       .  S
C559        C744   1.491       .  S
C560        C724   1.495       .  S
H561        O562   0.965       .  S
H563        O564   0.966       .  S
O564      Eu2370   2.353       .  S
O564      Eu2374   2.352       .  S
O565        C576   1.290       .  A
O565       Eu601   2.456       .  S
O566        C577   1.290       .  A
O566       Eu600   2.456       .  S
O567        C578   1.289       .  A
O567       Eu573   2.448       .  S
O568        C579   1.290       .  A
O568      Eu1485   2.451       .  S
O569        C579   1.291       .  A
O569       Eu603   2.455       .  S
O570        C578   1.292       .  A
O570       Eu602   2.461       .  S
O571        C577   1.295       .  A
O571       Eu573   2.486       .  S
O572        C576   1.291       .  A
O572       Eu573   2.459       .  S
Eu573      O1480   2.451       .  S
Eu573      O1495   2.359       .  S
Eu573       O575   2.360       .  S
Eu573      O1486   2.348       .  S
Eu573       O581   2.350       .  S
O574      Eu1485   2.348       .  S
O574       Eu603   2.354       .  S
O574      Eu1512   2.349       .  S
O575       Eu601   2.354       .  S
O575       Eu602   2.350       .  S
C576       C1779   1.473       .  S
C577       C1769   1.489       .  S
C578        C684   1.476       .  S
C579        C674   1.478       .  S
H580        O581   0.966       .  S
O581       Eu602   2.361       .  S
O581       Eu600   2.354       .  S
H582        O583   0.965       .  S
O583      Eu1485   2.359       .  S
O583      Eu1513   2.356   1_545  S
O583       Eu603   2.353       .  S
O584        C607   1.290       .  A
O584       Eu600   2.454       .  S
O585        C608   1.291       .  A
O585       Eu601   2.456       .  S
O586        C609   1.292       .  A
O586       Eu602   2.465       .  S
O587        C610   1.293       .  A
O587       Eu603   2.471       .  S
O588        C611   1.292       .  A
O588       Eu603   2.468       .  S
O589        C612   1.295       .  A
O589       Eu602   2.482       .  S
O590        C613   1.292       .  A
O590       Eu604   2.463       .  S
O591        C614   1.291       .  A
O591      Eu1516   2.464       .  S
O592        C613   1.292       .  A
O592       Eu602   2.461       .  S
O593        C614   1.291       .  A
O593       Eu603   2.457       .  S
O594        C609   1.292       .  A
O594       Eu600   2.464       .  S
O595        C612   1.290       .  A
O595       Eu601   2.453       .  S
O596        C611   1.290       .  A
O596      Eu1513   2.454   1_545  S
O597        C610   1.290       .  A
O597      Eu1512   2.454       .  S
O598        C607   1.293       .  A
O598       Eu604   2.472       .  S
O599        C608   1.292       .  A
O599       Eu604   2.464       .  S
Eu600      O1509   2.454       .  S
Eu600      O1486   2.349       .  S
Eu600      O1530   2.358       .  S
Eu600       O606   2.351       .  S
Eu601      O1508   2.454       .  S
Eu601      O1495   2.356       .  S
Eu601      O1517   2.350       .  S
Eu601       O616   2.351       .  S
Eu602       O616   2.353       .  S
Eu602       O606   2.355       .  S
Eu603       O605   2.352       .  S
Eu603       O618   2.358       .  S
Eu604      O1503   2.464       .  S
Eu604      O1517   2.353       .  S
Eu604       O616   2.358       .  S
Eu604      O1530   2.358       .  S
Eu604       O606   2.353       .  S
O605      Eu1513   2.350   1_545  S
O605      Eu1516   2.353       .  S
C607       C1759   1.490       .  S
C608       C1749   1.489       .  S
C609        C747   1.489       .  S
C610        C737   1.488       .  S
C611        C714   1.489       .  S
C612        C727   1.488       .  S
C613        C694   1.484       .  S
C614        C704   1.477       .  S
H615        O616   0.966       .  S
H617        O618   0.966       .  S
O618      Eu1512   2.358       .  S
O618      Eu1516   2.358       .  S
O619        C630   1.288       .  A
O619       Eu655   2.454   1_554  S
O620        C631   1.291       .  A
O620       Eu654   2.466       .  S
O621        C632   1.288       .  A
O622        C633   1.284       .  A
O622       Eu627   2.433       .  S
O623        C633   1.289       .  A
O623       Eu657   2.454       .  S
O624        C632   1.288       .  A
O624       Eu656   2.455       .  S
O625        C631   1.290   1_554  A
O625       Eu627   2.459   1_554  S
O626        C630   1.290   1_556  A
O626       Eu627   2.458       .  S
Eu627       O637   2.354       .  S
Eu627       O628   2.351       .  S
O628       Eu657   2.347       .  S
O628       Eu654   2.346       .  S
O629       Eu656   2.344       .  S
C632        C764   1.505       .  S
C633        C777   1.493       .  S
H634        O635   0.966       .  S
O635       Eu656   2.355       .  S
H636        O637   0.965       .  S
O637       Eu655   2.349       .  S
O637       Eu657   2.356       .  S
O638        C661   1.292       .  A
O638       Eu654   2.466   1_554  S
O639        C662   1.290       .  A
O639       Eu655   2.452       .  S
O640        C663   1.290       .  A
O640       Eu656   2.452       .  S
O641        C664   1.293       .  A
O641       Eu657   2.470       .  S
O642        C665   1.292       .  A
O642       Eu657   2.464       .  S
O643        C666   1.290       .  A
O643       Eu656   2.454       .  S
O644        C667   1.287       .  A
O645        C668   1.285       .  A
O645       Eu658   2.437       .  S
O646        C667   1.291       .  A
O646       Eu656   2.464       .  S
O647        C668   1.289       .  A
O647       Eu657   2.450       .  S
O648        C663   1.290       .  A
O649        C666   1.293       .  A
O650        C665   1.293       .  A
O650       Eu655   2.467       .  S
O651        C664   1.292       .  A
O651       Eu654   2.463       .  S
O652        C661   1.288   1_556  A
O652       Eu658   2.451       .  S
O653        C662   1.287   1_554  A
O653       Eu658   2.441   1_554  S
Eu654       O672   2.345       .  S
Eu655       O659   2.345       .  S
Eu656       O670   2.351       .  S
Eu656       O660   2.346       .  S
Eu657       O659   2.345       .  S
Eu657       O672   2.355       .  S
Eu658       O659   2.345       .  S
Eu658       O672   2.351       .  S
C663        C687   1.469       .  S
C664        C697   1.485       .  S
C665        C707   1.477       .  S
C666        C677   1.480       .  S
C667        C757   1.498       .  S
C668        C787   1.489       .  S
H669        O670   0.966       .  S
H671        O672   0.966       .  S
C673        C674   1.413       .  A
C673        C678   1.408       .  A
C673       Br680   1.935       .  S
C674        C675   1.412       .  A
C675        C676   1.407       .  A
C675       Br682   1.934       .  S
C676        C677   1.411       .  A
C676       Br681   1.930       .  S
C677        C678   1.412       .  A
C678       Br679   1.932       .  S
C683        C684   1.413       .  A
C683        C688   1.406       .  A
C683       Br690   1.932       .  S
C684        C685   1.413       .  A
C685        C686   1.403       .  A
C685       Br692   1.928       .  S
C686        C687   1.407       .  A
C686       Br691   1.932       .  S
C687        C688   1.408       .  A
C688       Br689   1.930       .  S
C693        C694   1.412       .  A
C693        C698   1.410       .  A
C693       Br700   1.933       .  S
C694        C695   1.413       .  A
C695        C696   1.410       .  A
C695       Br702   1.932       .  S
C696        C697   1.413       .  A
C696       Br701   1.932       .  S
C697        C698   1.413       .  A
C698       Br699   1.931       .  S
C703        C704   1.410       .  A
C703        C708   1.407       .  A
C703       Br710   1.932       .  S
C704        C705   1.412       .  A
C705        C706   1.411       .  A
C705       Br712   1.932       .  S
C706        C707   1.411       .  A
C706       Br711   1.930       .  S
C707        C708   1.409       .  A
C708       Br709   1.930       .  S
C713        C714   1.413       .  A
C713        C718   1.409       .  A
C713       Br720   1.931       .  S
C714        C715   1.414       .  A
C715        C716   1.410       .  A
C715       Br722   1.935       .  S
C716        C717   1.416       .  A
C716       Br721   1.929       .  S
C717        C718   1.412       .  A
C718       Br719   1.922       .  S
C723        C724   1.415       .  A
C723        C728   1.412       .  A
C723       Br730   1.929       .  S
C724        C725   1.412       .  A
C725        C726   1.410       .  A
C725       Br732   1.924       .  S
C726        C727   1.411       .  A
C726       Br731   1.933       .  S
C727        C728   1.415       .  A
C728       Br729   1.932       .  S
C733        C734   1.416       .  A
C733        C738   1.409       .  A
C733       Br740   1.930       .  S
C734        C735   1.415       .  A
C735        C736   1.411       .  A
C735       Br742   1.930       .  S
C736        C737   1.412       .  A
C736       Br741   1.933       .  S
C737        C738   1.414       .  A
C738       Br739   1.936       .  S
C743        C744   1.414       .  A
C743        C748   1.411       .  A
C743       Br750   1.932       .  S
C744        C745   1.412       .  A
C745        C746   1.410       .  A
C745       Br752   1.925       .  S
C746        C747   1.414       .  A
C746       Br751   1.933       .  S
C747        C748   1.415       .  A
C748       Br749   1.933       .  S
C753        C754   1.426       .  A
C753        C758   1.406       .  A
C753       Br760   1.942       .  S
C754        C755   1.428       .  A
C755        C756   1.412       .  A
C755       Br762   1.943       .  S
C756        C757   1.418       .  A
C756       Br761   1.941       .  S
C757        C758   1.414       .  A
C758       Br759   1.939       .  S
C763        C764   1.422       .  A
C763        C768   1.408       .  A
C763       Br770   1.941       .  S
C764        C765   1.421       .  A
C765        C766   1.407       .  A
C765       Br772   1.939       .  S
C766        C767   1.422       .  A
C766       Br771   1.940       .  S
C767        C768   1.422       .  A
C768       Br769   1.940       .  S
C773        C774   1.422       .  A
C773        C778   1.401       .  A
C773       Br780   1.942       .  S
C774        C775   1.425       .  A
C775        C776   1.411       .  A
C775       Br782   1.945       .  S
C776        C777   1.423       .  A
C776       Br781   1.944       .  S
C777        C778   1.414       .  A
C778       Br779   1.940       .  S
C783        C784   1.426       .  A
C783        C788   1.409       .  A
C783       Br790   1.943       .  S
C784        C785   1.423       .  A
C785        C786   1.400       .  A
C785       Br792   1.940       .  S
C786        C787   1.412       .  A
C786       Br791   1.938       .  S
C787        C788   1.419       .  A
C788       Br789   1.942       .  S
C793        C794   1.421       .  A
C793        C798   1.414       .  A
C793       Br800   1.934       .  S
C795        C796   1.404   1_556  A
C795       Br802   1.937       .  S
C796       Br801   1.937   1_554  S
C797        C798   1.416       .  A
C798       Br799   1.937       .  S
C803        C808   1.412       .  A
C803       Br810   1.938       .  S
C804        C805   1.412       .  A
C805        C806   1.406       .  A
C805       Br812   1.943       .  S
C806        C807   1.426       .  A
C806       Br811   1.940       .  S
C808       Br809   1.938       .  S
C813        C814   1.424       .  A
C813        C818   1.413       .  A
C813       Br820   1.941       .  S
C815        C816   1.409       .  A
C815       Br822   1.944       .  S
C816       Br821   1.941       .  S
C817        C818   1.418       .  A
C818       Br819   1.935       .  S
C823        C824   1.428       .  A
C823        C828   1.410       .  A
C823       Br830   1.943       .  S
C825        C826   1.410       .  A
C825       Br832   1.942       .  S
C826       Br831   1.933       .  S
C827        C828   1.418       .  A
C828       Br829   1.942       .  S
C833       C1746   1.411       .  A
C833        C838   1.410       .  A
C833       Br840   1.922       .  S
C834       C1745   1.411       .  A
C834        C835   1.417   1_565  A
C835        C836   1.410       .  A
C835       Br842   1.932       .  S
C836        C837   1.415   1_545  A
C836       Br841   1.935       .  S
C837       C1520   1.489       .  S
C837       C1750   1.415       .  A
C838       C1749   1.415       .  A
C838       Br839   1.935       .  S
C843        C844   1.415       .  A
C843        C848   1.413       .  A
C843       Br850   1.917       .  S
C844       C1757   1.420   1_545  A
C845       C1756   1.420       .  A
C845        C846   1.412       .  A
C845       Br852   1.931       .  S
C846       C1759   1.413       .  A
C846       Br851   1.936       .  S
C847       C1519   1.490   1_565  S
C847       C1758   1.413       .  A
C847        C848   1.411   1_565  A
C848       Br849   1.934       .  S
C853       C1766   1.409       .  A
C853        C858   1.412       .  A
C853       Br860   1.927       .  S
C854       C1765   1.409       .  A
C854        C855   1.414   1_565  A
C855        C856   1.410       .  A
C855       Br862   1.928       .  S
C856        C857   1.414       .  A
C856       Br861   1.931       .  S
C857       C1489   1.489       .  S
C857       C1770   1.412   1_545  A
C858       C1769   1.412       .  A
C858       Br859   1.929       .  S
C863        C864   1.409       .  A
C863        C868   1.406       .  A
C863       Br870   1.915       .  S
C864       C1777   1.410   1_545  A
C865       C1776   1.410       .  A
C865        C866   1.409       .  A
C865       Br872   1.927       .  S
C866       C1779   1.408       .  A
C866       Br871   1.928       .  S
C867       C1488   1.473       .  S
C867       C1778   1.408       .  A
C867        C868   1.406   1_565  A
C868       Br869   1.928       .  S
C873        C874   1.408   1_455  A
C873        C878   1.407       .  A
C873       Br880   1.922       .  S
C874       C2699   1.408       .  A
C875       C2698   1.408       .  A
C875        C876   1.409       .  A
C875       Br882   1.931       .  S
C876       C2701   1.410       .  A
C876       Br881   1.924       .  S
C877       C2700   1.410       .  A
C877        C878   1.409   1_655  A
C878       Br879   1.930       .  S
C883        C884   1.409       .  A
C883        C888   1.409       .  A
C883       Br890   1.927       .  S
C884       C2709   1.408   1_455  A
C885       C2708   1.408       .  A
C885        C886   1.406       .  A
C885       Br892   1.931       .  S
C886       C2711   1.409       .  A
C886       Br891   1.926       .  S
C887       C2710   1.409   1_455  A
C887        C888   1.409       .  A
C888       Br889   1.930       .  S
C893        C894   1.413   1_655  A
C893        C898   1.411       .  A
C893       Br900   1.934       .  S
C894       C2719   1.410       .  A
C895       C2718   1.410       .  A
C895        C896   1.409       .  A
C895       Br902   1.932       .  S
C896       C2721   1.419       .  A
C896       Br901   1.934       .  S
C897       C2720   1.419       .  A
C897        C898   1.420   1_455  A
C898       Br899   1.933       .  S
C903        C904   1.410       .  A
C903        C908   1.411       .  A
C903       Br910   1.928       .  S
C904       C2729   1.407   1_455  A
C905       C2728   1.407       .  A
C905        C906   1.407       .  A
C905       Br912   1.921       .  S
C906       C2731   1.409       .  A
C906       Br911   1.928       .  S
C907       C2730   1.409   1_455  A
C907        C908   1.410       .  A
C908       Br909   1.927       .  S
O913        C924   1.296       .  A
O913       Eu949   2.490   1_455  S
O914        C925   1.294       .  A
O914       Eu948   2.478   1_655  S
O915        C926   1.293   1_556  A
O915       Eu921   2.481   1_455  S
O916        C927   1.293       .  A
O916      Eu2745   2.478       .  S
O917        C927   1.287       .  A
O917       Eu951   2.449       .  S
O918        C926   1.284       .  A
O918       Eu950   2.435       .  S
O919        C925   1.289       .  A
O919      Eu1377   2.446       .  S
O920        C924   1.289       .  A
O920       Eu921   2.454   1_454  S
Eu921      O2740   2.478       .  S
Eu921      O1375   2.446       .  S
Eu921      O2755   2.361   1_556  S
Eu921       O923   2.347   1_656  S
Eu921      O3202   2.357       .  S
Eu921      O1385   2.355   1_655  S
O922      Eu3201   2.357       .  S
O922      Eu1407   2.346       .  S
O922      Eu2772   2.351       .  S
O923       Eu949   2.352   1_455  S
O923       Eu950   2.357       .  S
C924       C1360   1.482       .  S
C925       C1330   1.474       .  S
C926       C1280   1.508       .  S
C927       C1263   1.504       .  S
H928        O929   0.966       .  S
O929      Eu1377   2.355   1_455  S
O929      Eu1406   2.353       .  S
O929       Eu948   2.359       .  S
H930        O931   0.966       .  S
O931      Eu2745   2.361   1_554  S
O931      Eu2773   2.361       .  S
O931       Eu951   2.370   1_554  S
O932        C955   1.293       .  A
O933        C956   1.291       .  A
O934        C957   1.301       .  A
O934      Eu1406   2.515       .  S
O935        C958   1.298       .  A
O935      Eu1407   2.497       .  S
O936        C959   1.292       .  A
O936       Eu951   2.469   1_554  S
O937        C960   1.299       .  A
O937       Eu950   2.501       .  S
O938        C961   1.292       .  A
O938       Eu952   2.474   1_455  S
O939        C962   1.294       .  A
O939      Eu2776   2.478       .  S
O940        C961   1.285   1_556  A
O941        C962   1.286       .  A
O942        C957   1.289       .  A
O942       Eu948   2.453       .  S
O943        C960   1.289       .  A
O943       Eu949   2.448   1_455  S
O944        C959   1.294       .  A
O944      Eu2773   2.479       .  S
O945        C958   1.288       .  A
O945      Eu2772   2.447       .  S
O946        C955   1.290   1_655  A
O946      Eu1408   2.458       .  S
O947        C956   1.293       .  A
O947       Eu952   2.473       .  S
Eu948      O2769   2.447   1_455  S
Eu948      O2746   2.351   1_455  S
Eu948      O1878   2.364   1_455  S
Eu949      O2768   2.479       .  S
Eu949      O2755   2.361       .  S
Eu949      O1865   2.351       .  S
Eu950      O1390   2.515   1_554  S
Eu950      O1385   2.353   1_554  S
Eu951      O1391   2.497       .  S
Eu951      O1378   2.346       .  S
Eu952      O2763   2.478       .  S
Eu952      O1402   2.458   1_554  S
Eu952      O2777   2.348       .  S
Eu952       O964   2.349   1_655  S
Eu952      O3246   2.363   1_554  S
Eu952      O1410   2.363   1_654  S
O953      Eu1861   2.351   1_565  S
O953      Eu2776   2.348       .  S
O954      Eu1408   2.363   1_455  S
C955       C1343   1.475       .  S
C956       C1353   1.499   1_655  S
C957       C1300   1.506       .  S
C958       C1290   1.497       .  S
C959       C1320   1.482       .  S
C960       C1310   1.492       .  S
C961       C1270   1.508   1_554  S
C962       C1253   1.504       .  S
H963        O964   0.965       .  S
H965        O966   0.966       .  S
O966      Eu1860   2.364       .  S
O966      Eu3232   2.363       .  S
O967        C978   1.291       .  A
O967      Eu1003   2.460   1_455  S
O968        C979   1.291       .  A
O968      Eu1002   2.460       .  S
O969        C980   1.292       .  A
O969       Eu975   2.466   1_455  S
O970        C981   1.290       .  A
O970      Eu2799   2.453       .  S
O971        C981   1.296       .  A
O971      Eu1005   2.484       .  S
O972        C980   1.292       .  A
O972      Eu1004   2.464       .  S
O973        C979   1.293       .  A
O973       Eu975   2.473       .  S
O974        C978   1.293   1_655  A
O974       Eu975   2.469       .  S
Eu975      O2794   2.453       .  S
Eu975      O2809   2.356       .  S
Eu975       O977   2.351   1_655  S
Eu975      O2800   2.355       .  S
Eu975       O983   2.345   1_655  S
O976      Eu2799   2.355       .  S
O976      Eu1005   2.356       .  S
O976      Eu2826   2.348       .  S
O977      Eu1003   2.354   1_455  S
O977      Eu1004   2.347       .  S
C978       C1363   1.476       .  S
C979       C1333   1.477       .  S
C980       C1190   1.492       .  S
C981       C1173   1.493       .  S
H982        O983   0.966       .  S
O983      Eu1004   2.354       .  S
O983      Eu1002   2.354   1_455  S
H984        O985   0.966       .  S
O985      Eu2799   2.356       .  S
O985      Eu2827   2.355       .  S
O985      Eu1005   2.350       .  S
O986       C1009   1.289       .  A
O986      Eu1002   2.452   1_455  S
O987       C1010   1.293   1_655  A
O987      Eu1003   2.469       .  S
O988       C1011   1.285       .  A
O988      Eu1004   2.444       .  S
O989       C1012   1.285       .  A
O989      Eu1005   2.437       .  S
O990       C1013   1.287       .  A
O990      Eu1005   2.453       .  S
O991       C1014   1.288       .  A
O991      Eu1004   2.451       .  S
O992       C1015   1.292       .  A
O992      Eu1006   2.467       .  S
O993       C1016   1.291       .  A
O993      Eu2830   2.462       .  S
O994       C1015   1.294       .  A
O994      Eu1004   2.475       .  S
O995       C1016   1.297       .  A
O995      Eu1005   2.487       .  S
O996       C1011   1.286       .  A
O996      Eu1002   2.448   1_455  S
O997       C1014   1.288       .  A
O997      Eu1003   2.457   1_455  S
O998       C1013   1.288       .  A
O998      Eu2827   2.457       .  S
O999       C1012   1.288       .  A
O999      Eu2826   2.458       .  S
O1000      C1009   1.291       .  A
O1000     Eu1006   2.465       .  S
O1001      C1010   1.289       .  A
O1001     Eu1006   2.447       .  S
Eu1002     O2823   2.458       .  S
Eu1002     O2800   2.348       .  S
Eu1002     O2844   2.353       .  S
Eu1002     O1008   2.355   1_655  S
Eu1003     O2822   2.457       .  S
Eu1003     O2809   2.355       .  S
Eu1003     O2831   2.345       .  S
Eu1003     O1018   2.352   1_655  S
Eu1004     O1018   2.353       .  S
Eu1004     O1008   2.354       .  S
Eu1005     O1007   2.350       .  S
Eu1005     O1020   2.361       .  S
Eu1006     O2817   2.462   1_455  S
Eu1006     O2831   2.359   1_455  S
Eu1006     O1018   2.351       .  S
Eu1006     O2844   2.352   1_455  S
Eu1006     O1008   2.350       .  S
O1007     Eu2827   2.345       .  S
O1007     Eu2830   2.359       .  S
C1009      C1340   1.472       .  S
C1010      C1350   1.487       .  S
C1011      C1230   1.502       .  S
C1012      C1240   1.501       .  S
C1013      C1210   1.508       .  S
C1014      C1223   1.504       .  S
C1015      C1200   1.491       .  S
C1016      C1180   1.495       .  S
H1017      O1018   0.965       .  S
H1019      O1020   0.966       .  S
O1020     Eu2826   2.353       .  S
O1020     Eu2830   2.352       .  S
O1021      C1032   1.290       .  A
O1021     Eu1057   2.456       .  S
O1022      C1033   1.290       .  A
O1022     Eu1056   2.456       .  S
O1023      C1034   1.289       .  A
O1023     Eu1029   2.448   1_565  S
O1024      C1035   1.290       .  A
O1025      C1035   1.291       .  A
O1025     Eu1059   2.455       .  S
O1026      C1034   1.292       .  A
O1026     Eu1058   2.461       .  S
O1027      C1033   1.295       .  A
O1027     Eu1029   2.486       .  S
O1028      C1032   1.291       .  A
O1028     Eu1029   2.459   1_565  S
Eu1029     O1031   2.360   1_545  S
Eu1029     O1037   2.350   1_545  S
O1030     Eu1059   2.354       .  S
O1031     Eu1057   2.354       .  S
O1031     Eu1058   2.350       .  S
C1034      C1140   1.476       .  S
C1035      C1130   1.478       .  S
H1036      O1037   0.966       .  S
O1037     Eu1058   2.361       .  S
O1037     Eu1056   2.354   1_565  S
H1038      O1039   0.965       .  S
O1039     Eu1059   2.353       .  S
O1040      C1063   1.290       .  A
O1040     Eu1056   2.454       .  S
O1041      C1064   1.291       .  A
O1041     Eu1057   2.457       .  S
O1042      C1065   1.292       .  A
O1042     Eu1058   2.465       .  S
O1043      C1066   1.293       .  A
O1043     Eu1059   2.471       .  S
O1044      C1067   1.292       .  A
O1044     Eu1059   2.468       .  S
O1045      C1068   1.295       .  A
O1045     Eu1058   2.482       .  S
O1046      C1069   1.292       .  A
O1046     Eu1060   2.463   1_565  S
O1047      C1070   1.291       .  A
O1048      C1069   1.292       .  A
O1048     Eu1058   2.461       .  S
O1049      C1070   1.291       .  A
O1049     Eu1059   2.457       .  S
O1050      C1065   1.292       .  A
O1050     Eu1056   2.464   1_565  S
O1051      C1068   1.290       .  A
O1051     Eu1057   2.453       .  S
O1052      C1067   1.290       .  A
O1053      C1066   1.290       .  A
O1054      C1063   1.293   1_565  A
O1054     Eu1060   2.472   1_565  S
O1055      C1064   1.292   1_545  A
O1055     Eu1060   2.464       .  S
Eu1056     O1062   2.351   1_545  S
Eu1057     O1072   2.351       .  S
Eu1058     O1072   2.353       .  S
Eu1058     O1062   2.355       .  S
Eu1059     O1061   2.352       .  S
Eu1059     O1074   2.358       .  S
Eu1060     O1072   2.358   1_545  S
Eu1060     O1062   2.353   1_545  S
C1065      C1203   1.489       .  S
C1066      C1193   1.488       .  S
C1067      C1170   1.489       .  S
C1068      C1183   1.488       .  S
C1069      C1150   1.484       .  S
C1070      C1160   1.477       .  S
H1071      O1072   0.966       .  S
H1073      O1074   0.966       .  S
O1075      C1086   1.288       .  A
O1075     Eu1111   2.454       .  S
O1076      C1087   1.291       .  A
O1076     Eu1110   2.466       .  S
O1077      C1088   1.288       .  A
O1077     Eu1539   2.452   1_554  S
O1078      C1089   1.284       .  A
O1078     Eu1083   2.433       .  S
O1079      C1089   1.289       .  A
O1079     Eu1113   2.455       .  S
O1080      C1088   1.288       .  A
O1080     Eu1112   2.455       .  S
O1081      C1087   1.290       .  A
O1081     Eu1083   2.459       .  S
O1082      C1086   1.290       .  A
O1082     Eu1083   2.457       .  S
Eu1083     O1533   2.452       .  S
Eu1083     O1093   2.354       .  S
Eu1083     O1541   2.345       .  S
Eu1083     O1084   2.351       .  S
Eu1083     O1547   2.345       .  S
O1084     Eu1113   2.347       .  S
O1084     Eu1110   2.346       .  S
O1085     Eu1539   2.345   1_554  S
O1085     Eu1567   2.347   1_554  S
O1085     Eu1112   2.344       .  S
C1086      C1739   1.500       .  S
C1087      C1729   1.502       .  S
C1088      C1220   1.505       .  S
C1089      C1233   1.493       .  S
H1090      O1091   0.966       .  S
O1091     Eu1539   2.345   1_554  S
O1091     Eu1112   2.355       .  S
O1091     Eu1566   2.352   1_554  S
H1092      O1093   0.965       .  S
O1093     Eu1111   2.349       .  S
O1093     Eu1113   2.356       .  S
O1094      C1117   1.292       .  A
O1094     Eu1110   2.466       .  S
O1095      C1118   1.290       .  A
O1095     Eu1111   2.452       .  S
O1096      C1119   1.290       .  A
O1096     Eu1112   2.452       .  S
O1097      C1120   1.293       .  A
O1097     Eu1113   2.470       .  S
O1098      C1121   1.292       .  A
O1098     Eu1113   2.464       .  S
O1099      C1122   1.290       .  A
O1099     Eu1112   2.454       .  S
O1100      C1123   1.287       .  A
O1100     Eu1570   2.445   1_554  S
O1101      C1124   1.285       .  A
O1101     Eu1114   2.437       .  S
O1102      C1123   1.291       .  A
O1102     Eu1112   2.464       .  S
O1103      C1124   1.289       .  A
O1103     Eu1113   2.450       .  S
O1104      C1119   1.290       .  A
O1104     Eu1566   2.446   1_554  S
O1105      C1122   1.293       .  A
O1105     Eu1567   2.470   1_554  S
O1106      C1121   1.293       .  A
O1106     Eu1111   2.467       .  S
O1107      C1120   1.292       .  A
O1107     Eu1110   2.464       .  S
O1108      C1117   1.288       .  A
O1108     Eu1114   2.451       .  S
O1109      C1118   1.287       .  A
O1109     Eu1114   2.441       .  S
Eu1110     O1560   2.446       .  S
Eu1110     O1547   2.352       .  S
Eu1110     O1128   2.345       .  S
Eu1110     O1572   2.352       .  S
Eu1111     O1561   2.470       .  S
Eu1111     O1541   2.347       .  S
Eu1111     O1115   2.345       .  S
Eu1111     O1582   2.350       .  S
Eu1112     O1126   2.352       .  S
Eu1112     O1116   2.346       .  S
Eu1113     O1115   2.345       .  S
Eu1113     O1128   2.355       .  S
Eu1114     O1556   2.446       .  S
Eu1114     O1115   2.345       .  S
Eu1114     O1582   2.351       .  S
Eu1114     O1128   2.351       .  S
Eu1114     O1572   2.341       .  S
O1116     Eu1566   2.352   1_554  S
O1116     Eu1570   2.341   1_554  S
C1117      C1706   1.496       .  S
C1118      C1716   1.489       .  S
C1119      C1143   1.469       .  S
C1120      C1153   1.485       .  S
C1121      C1163   1.477       .  S
C1122      C1133   1.480       .  S
C1123      C1213   1.497       .  S
C1124      C1243   1.489       .  S
H1125      O1126   0.966       .  S
O1126     Eu1567   2.350   1_554  S
O1126     Eu1570   2.351   1_554  S
H1127      O1128   0.966       .  S
C1129      C1130   1.413       .  A
C1129      C1134   1.408       .  A
C1129     Br1136   1.935       .  S
C1130      C1131   1.412       .  A
C1131      C1132   1.407       .  A
C1131     Br1138   1.934       .  S
C1132      C1133   1.411       .  A
C1132     Br1137   1.930       .  S
C1133      C1134   1.412       .  A
C1134     Br1135   1.932       .  S
C1139      C1140   1.413       .  A
C1139      C1144   1.406       .  A
C1139     Br1146   1.932       .  S
C1140      C1141   1.413       .  A
C1141      C1142   1.403       .  A
C1141     Br1148   1.928       .  S
C1142      C1143   1.407       .  A
C1142     Br1147   1.932       .  S
C1143      C1144   1.408       .  A
C1144     Br1145   1.930       .  S
C1149      C1150   1.412       .  A
C1149      C1154   1.410       .  A
C1149     Br1156   1.933       .  S
C1150      C1151   1.413       .  A
C1151      C1152   1.410       .  A
C1151     Br1158   1.932       .  S
C1152      C1153   1.413       .  A
C1152     Br1157   1.932       .  S
C1153      C1154   1.413       .  A
C1154     Br1155   1.931       .  S
C1159      C1160   1.410       .  A
C1159      C1164   1.407       .  A
C1159     Br1166   1.932       .  S
C1160      C1161   1.412       .  A
C1161      C1162   1.411       .  A
C1161     Br1168   1.932       .  S
C1162      C1163   1.411       .  A
C1162     Br1167   1.930       .  S
C1163      C1164   1.409       .  A
C1164     Br1165   1.930       .  S
C1169      C1170   1.413       .  A
C1169      C1174   1.409       .  A
C1169     Br1176   1.931       .  S
C1170      C1171   1.414       .  A
C1171      C1172   1.410       .  A
C1171     Br1178   1.935       .  S
C1172      C1173   1.416       .  A
C1172     Br1177   1.929       .  S
C1173      C1174   1.412       .  A
C1174     Br1175   1.922       .  S
C1179      C1180   1.414       .  A
C1179      C1184   1.412       .  A
C1179     Br1186   1.929       .  S
C1180      C1181   1.412       .  A
C1181      C1182   1.410       .  A
C1181     Br1188   1.924       .  S
C1182      C1183   1.411       .  A
C1182     Br1187   1.933       .  S
C1183      C1184   1.415       .  A
C1184     Br1185   1.932       .  S
C1189      C1190   1.416       .  A
C1189      C1194   1.409       .  A
C1189     Br1196   1.930       .  S
C1190      C1191   1.415       .  A
C1191      C1192   1.411       .  A
C1191     Br1198   1.930       .  S
C1192      C1193   1.412       .  A
C1192     Br1197   1.933       .  S
C1193      C1194   1.414       .  A
C1194     Br1195   1.936       .  S
C1199      C1200   1.414       .  A
C1199      C1204   1.411       .  A
C1199     Br1206   1.932       .  S
C1200      C1201   1.412       .  A
C1201      C1202   1.410       .  A
C1201     Br1208   1.925       .  S
C1202      C1203   1.414       .  A
C1202     Br1207   1.933       .  S
C1203      C1204   1.415       .  A
C1204     Br1205   1.933       .  S
C1209      C1210   1.426       .  A
C1209      C1214   1.406       .  A
C1209     Br1216   1.942       .  S
C1210      C1211   1.428       .  A
C1211      C1212   1.412       .  A
C1211     Br1218   1.943       .  S
C1212      C1213   1.418       .  A
C1212     Br1217   1.941       .  S
C1213      C1214   1.414       .  A
C1214     Br1215   1.939       .  S
C1219      C1220   1.422       .  A
C1219      C1224   1.408       .  A
C1219     Br1226   1.941       .  S
C1220      C1221   1.421       .  A
C1221      C1222   1.407       .  A
C1221     Br1228   1.939       .  S
C1222      C1223   1.422       .  A
C1222     Br1227   1.940       .  S
C1223      C1224   1.422       .  A
C1224     Br1225   1.940       .  S
C1229      C1230   1.421       .  A
C1229      C1234   1.401       .  A
C1229     Br1236   1.942       .  S
C1230      C1231   1.425       .  A
C1231      C1232   1.411       .  A
C1231     Br1238   1.945       .  S
C1232      C1233   1.423       .  A
C1232     Br1237   1.944       .  S
C1233      C1234   1.414       .  A
C1234     Br1235   1.940       .  S
C1239      C1240   1.426       .  A
C1239      C1244   1.409       .  A
C1239     Br1246   1.943       .  S
C1240      C1241   1.423       .  A
C1241      C1242   1.400       .  A
C1241     Br1248   1.940       .  S
C1242      C1243   1.412       .  A
C1242     Br1247   1.938       .  S
C1243      C1244   1.419       .  A
C1244     Br1245   1.942       .  S
C1249      C1250   1.421       .  A
C1249      C1254   1.414       .  A
C1249     Br1256   1.934       .  S
C1250      C1573   1.495       .  S
C1250      C1707   1.414   1_554  A
C1251      C1706   1.414       .  A
C1251      C1252   1.404       .  A
C1251     Br1258   1.937       .  S
C1252      C1709   1.418       .  A
C1252     Br1257   1.937       .  S
C1253      C1708   1.418       .  A
C1253      C1254   1.416       .  A
C1254     Br1255   1.937       .  S
C1259      C1716   1.416       .  A
C1259      C1264   1.412       .  A
C1259     Br1266   1.938       .  S
C1260      C1574   1.489       .  S
C1260      C1715   1.416       .  A
C1260      C1261   1.412   1_556  A
C1261      C1262   1.406       .  A
C1261     Br1268   1.943       .  S
C1262      C1263   1.426   1_554  A
C1262     Br1267   1.940       .  S
C1263      C1720   1.423       .  A
C1264      C1719   1.423       .  A
C1264     Br1265   1.938       .  S
C1269      C1270   1.424       .  A
C1269      C1274   1.413       .  A
C1269     Br1276   1.941       .  S
C1270      C1727   1.427   1_556  A
C1271      C1726   1.427       .  A
C1271      C1272   1.409       .  A
C1271     Br1278   1.944       .  S
C1272      C1729   1.417       .  A
C1272     Br1277   1.941       .  S
C1273      C1543   1.502       .  S
C1273      C1728   1.417   1_556  A
C1273      C1274   1.418       .  A
C1274     Br1275   1.935       .  S
C1279      C1280   1.428   1_556  A
C1279      C1284   1.410       .  A
C1279     Br1286   1.943   1_556  S
C1280      C1737   1.423       .  A
C1281      C1736   1.423       .  A
C1281      C1282   1.410       .  A
C1281     Br1288   1.942       .  S
C1282      C1739   1.417       .  A
C1282     Br1287   1.933       .  S
C1283      C1542   1.500       .  S
C1283      C1738   1.417       .  A
C1283      C1284   1.418   1_554  A
C1284     Br1285   1.942       .  S
C1289      C1294   1.410       .  A
C1289     Br1296   1.922       .  S
C1290      C1291   1.417       .  A
C1291      C1292   1.410       .  A
C1291     Br1298   1.932       .  S
C1292      C1293   1.415       .  A
C1292     Br1297   1.935       .  S
C1294     Br1295   1.935       .  S
C1299      C1300   1.415       .  A
C1299      C1304   1.413       .  A
C1299     Br1306   1.917       .  S
C1301      C1302   1.412       .  A
C1301     Br1308   1.931       .  S
C1302     Br1307   1.936       .  S
C1303      C1304   1.411       .  A
C1304     Br1305   1.934       .  S
C1309      C1314   1.412       .  A
C1309     Br1316   1.927       .  S
C1310      C1311   1.414       .  A
C1311      C1312   1.410       .  A
C1311     Br1318   1.928       .  S
C1312      C1313   1.414       .  A
C1312     Br1317   1.931       .  S
C1314     Br1315   1.929       .  S
C1319      C1320   1.409       .  A
C1319      C1324   1.406       .  A
C1319     Br1326   1.915       .  S
C1321      C1322   1.409       .  A
C1321     Br1328   1.927       .  S
C1322     Br1327   1.928       .  S
C1323      C1324   1.406       .  A
C1324     Br1325   1.929       .  S
C1329      C1330   1.408   1_455  A
C1329      C1334   1.407       .  A
C1329     Br1336   1.922       .  S
C1330      C3155   1.408       .  A
C1331      C3154   1.408       .  A
C1331      C1332   1.409       .  A
C1331     Br1338   1.931       .  S
C1332      C3157   1.410       .  A
C1332     Br1337   1.924       .  S
C1333      C3156   1.410       .  A
C1333      C1334   1.409   1_655  A
C1334     Br1335   1.930       .  S
C1339      C1340   1.409       .  A
C1339      C1344   1.409       .  A
C1339     Br1346   1.927       .  S
C1340      C3165   1.408   1_455  A
C1341      C3164   1.408       .  A
C1341      C1342   1.406       .  A
C1341     Br1348   1.931       .  S
C1342      C3167   1.409       .  A
C1342     Br1347   1.926       .  S
C1343      C3166   1.409   1_455  A
C1343      C1344   1.409       .  A
C1344     Br1345   1.929       .  S
C1349      C1350   1.413   1_655  A
C1349      C1354   1.411       .  A
C1349     Br1356   1.934       .  S
C1350      C3175   1.410       .  A
C1351      C3174   1.410       .  A
C1351      C1352   1.409       .  A
C1351     Br1358   1.932       .  S
C1352      C3177   1.419       .  A
C1352     Br1357   1.934       .  S
C1353      C3176   1.419       .  A
C1353      C1354   1.420   1_455  A
C1354     Br1355   1.933       .  S
C1359      C1360   1.410       .  A
C1359      C1364   1.411       .  A
C1359     Br1366   1.928       .  S
C1360      C3185   1.407   1_455  A
C1361      C3184   1.407       .  A
C1361      C1362   1.407       .  A
C1361     Br1368   1.921       .  S
C1362      C3187   1.409       .  A
C1362     Br1367   1.928       .  S
C1363      C3186   1.409   1_455  A
C1363      C1364   1.410       .  A
C1364     Br1365   1.927       .  S
O1369      C1380   1.296       .  A
O1369     Eu1405   2.490   1_455  S
O1370      C1381   1.294       .  A
O1370     Eu1404   2.478   1_655  S
O1371      C1382   1.293       .  A
O1371     Eu1377   2.481   1_455  S
O1372      C1383   1.293       .  A
O1372     Eu3201   2.478       .  S
O1373      C1383   1.287       .  A
O1373     Eu1407   2.449       .  S
O1374      C1382   1.284       .  A
O1374     Eu1406   2.435       .  S
O1375      C1381   1.289       .  A
O1376      C1380   1.289       .  A
O1376     Eu1377   2.454   1_455  S
Eu1377     O3196   2.478       .  S
Eu1377     O3211   2.361       .  S
Eu1377     O1379   2.347   1_655  S
Eu1377     O2746   2.357       .  S
O1378     Eu2745   2.357       .  S
O1378     Eu3228   2.351       .  S
O1379     Eu1405   2.352   1_455  S
O1379     Eu1406   2.357       .  S
C1380      C1816   1.482       .  S
C1381      C1786   1.474       .  S
C1382      C1736   1.508       .  S
C1383      C1719   1.504       .  S
H1384      O1385   0.966       .  S
O1385     Eu1404   2.359       .  S
H1386      O1387   0.966       .  S
O1387     Eu3201   2.361       .  S
O1387     Eu3229   2.361       .  S
O1387     Eu1407   2.370       .  S
O1388      C1411   1.293       .  A
O1389      C1412   1.291       .  A
O1390      C1413   1.301       .  A
O1391      C1414   1.298       .  A
O1392      C1415   1.292       .  A
O1392     Eu1407   2.469       .  S
O1393      C1416   1.299       .  A
O1393     Eu1406   2.501       .  S
O1394      C1417   1.292       .  A
O1394     Eu1408   2.474   1_455  S
O1395      C1418   1.294       .  A
O1395     Eu3232   2.478       .  S
O1396      C1417   1.285       .  A
O1397      C1418   1.286       .  A
O1398      C1413   1.289       .  A
O1398     Eu1404   2.453       .  S
O1399      C1416   1.289       .  A
O1399     Eu1405   2.448   1_455  S
O1400      C1415   1.294       .  A
O1400     Eu3229   2.479       .  S
O1401      C1414   1.288       .  A
O1401     Eu3228   2.447       .  S
O1402      C1411   1.290   1_655  A
O1403      C1412   1.293       .  A
O1403     Eu1408   2.473       .  S
Eu1404     O3225   2.447   1_455  S
Eu1404     O3202   2.351   1_455  S
Eu1404     O2334   2.364   1_455  S
Eu1405     O3224   2.479       .  S
Eu1405     O3211   2.361       .  S
Eu1405     O2321   2.351       .  S
Eu1408     O3219   2.478       .  S
Eu1408     O3233   2.348       .  S
Eu1408     O1420   2.349   1_655  S
Eu1408     O2790   2.363       .  S
O1409     Eu2317   2.351   1_565  S
O1409     Eu3232   2.348       .  S
C1411      C1799   1.475       .  S
C1412      C1809   1.499   1_655  S
C1413      C1756   1.506       .  S
C1414      C1746   1.497       .  S
C1415      C1776   1.482       .  S
C1416      C1766   1.492       .  S
C1417      C1726   1.508       .  S
C1418      C1709   1.504       .  S
H1419      O1420   0.965       .  S
H1421      O1422   0.966       .  S
O1422     Eu2316   2.364       .  S
O1422     Eu2776   2.363   1_556  S
O1423      C1434   1.291       .  A
O1423     Eu1459   2.461   1_455  S
O1424      C1435   1.291       .  A
O1424     Eu1458   2.461       .  S
O1425      C1436   1.292       .  A
O1425     Eu1431   2.466   1_455  S
O1426      C1437   1.290       .  A
O1426     Eu3255   2.454       .  S
O1427      C1437   1.296       .  A
O1427     Eu1461   2.484       .  S
O1428      C1436   1.292       .  A
O1428     Eu1460   2.464       .  S
O1429      C1435   1.293       .  A
O1429     Eu1431   2.473       .  S
O1430      C1434   1.293   1_655  A
O1430     Eu1431   2.469       .  S
Eu1431     O3250   2.454       .  S
Eu1431     O3265   2.356       .  S
Eu1431     O1433   2.351   1_655  S
Eu1431     O3256   2.355       .  S
Eu1431     O1439   2.345   1_655  S
O1432     Eu3255   2.355       .  S
O1432     Eu1461   2.356       .  S
O1432     Eu3282   2.348       .  S
O1433     Eu1459   2.354   1_455  S
O1433     Eu1460   2.347       .  S
C1434      C1819   1.476       .  S
C1435      C1789   1.477       .  S
C1436      C1646   1.492       .  S
C1437      C1629   1.493       .  S
H1438      O1439   0.966       .  S
O1439     Eu1460   2.354       .  S
O1439     Eu1458   2.354   1_455  S
H1440      O1441   0.966       .  S
O1441     Eu3255   2.356       .  S
O1441     Eu3283   2.355       .  S
O1441     Eu1461   2.350       .  S
O1442      C1465   1.289       .  A
O1442     Eu1458   2.452   1_455  S
O1443      C1466   1.293   1_655  A
O1443     Eu1459   2.469       .  S
O1444      C1467   1.285       .  A
O1444     Eu1460   2.444       .  S
O1445      C1468   1.285       .  A
O1445     Eu1461   2.437       .  S
O1446      C1469   1.287       .  A
O1446     Eu1461   2.453       .  S
O1447      C1470   1.288       .  A
O1447     Eu1460   2.451       .  S
O1448      C1471   1.292       .  A
O1448     Eu1462   2.467       .  S
O1449      C1472   1.291       .  A
O1449     Eu3286   2.462       .  S
O1450      C1471   1.294       .  A
O1450     Eu1460   2.475       .  S
O1451      C1472   1.297       .  A
O1451     Eu1461   2.487       .  S
O1452      C1467   1.287       .  A
O1452     Eu1458   2.448   1_455  S
O1453      C1470   1.288       .  A
O1453     Eu1459   2.457   1_455  S
O1454      C1469   1.288       .  A
O1454     Eu3283   2.457       .  S
O1455      C1468   1.288       .  A
O1455     Eu3282   2.458       .  S
O1456      C1465   1.292       .  A
O1456     Eu1462   2.465       .  S
O1457      C1466   1.289       .  A
O1457     Eu1462   2.447       .  S
Eu1458     O3279   2.458       .  S
Eu1458     O3256   2.348       .  S
Eu1458     O3300   2.353       .  S
Eu1458     O1464   2.355   1_655  S
Eu1459     O3278   2.457       .  S
Eu1459     O3265   2.355       .  S
Eu1459     O3287   2.345       .  S
Eu1459     O1474   2.352   1_655  S
Eu1460     O1474   2.353       .  S
Eu1460     O1464   2.354       .  S
Eu1461     O1463   2.350       .  S
Eu1461     O1476   2.361       .  S
Eu1462     O3273   2.462   1_455  S
Eu1462     O3287   2.359   1_455  S
Eu1462     O1474   2.352       .  S
Eu1462     O3300   2.352   1_455  S
Eu1462     O1464   2.350       .  S
O1463     Eu3283   2.345       .  S
O1463     Eu3286   2.359       .  S
C1465      C1796   1.472       .  S
C1466      C1806   1.487       .  S
C1467      C1686   1.502       .  S
C1468      C1696   1.501       .  S
C1469      C1666   1.508       .  S
C1470      C1679   1.504       .  S
C1471      C1656   1.491       .  S
C1472      C1636   1.495       .  S
H1473      O1474   0.965       .  S
H1475      O1476   0.966       .  S
O1476     Eu3282   2.353       .  S
O1476     Eu3286   2.352       .  S
O1477      C1488   1.290       .  A
O1477     Eu1513   2.456       .  S
O1478      C1489   1.290       .  A
O1478     Eu1512   2.456       .  S
O1479      C1490   1.289       .  A
O1479     Eu1485   2.448   1_565  S
O1480      C1491   1.290       .  A
O1481      C1491   1.291       .  A
O1481     Eu1515   2.455       .  S
O1482      C1490   1.292       .  A
O1482     Eu1514   2.461       .  S
O1483      C1489   1.295       .  A
O1483     Eu1485   2.486       .  S
O1484      C1488   1.291       .  A
O1484     Eu1485   2.459   1_565  S
Eu1485     O1487   2.360   1_545  S
Eu1485     O1493   2.350   1_545  S
O1486     Eu1515   2.354       .  S
O1487     Eu1513   2.354       .  S
O1487     Eu1514   2.350       .  S
C1490      C1596   1.476       .  S
C1491      C1586   1.478       .  S
H1492      O1493   0.966       .  S
O1493     Eu1514   2.361       .  S
O1493     Eu1512   2.354   1_565  S
H1494      O1495   0.965       .  S
O1495     Eu1515   2.353       .  S
O1496      C1519   1.290       .  A
O1496     Eu1512   2.454       .  S
O1497      C1520   1.291       .  A
O1497     Eu1513   2.456       .  S
O1498      C1521   1.292       .  A
O1498     Eu1514   2.465       .  S
O1499      C1522   1.293       .  A
O1499     Eu1515   2.471       .  S
O1500      C1523   1.292       .  A
O1500     Eu1515   2.468       .  S
O1501      C1524   1.295       .  A
O1501     Eu1514   2.482       .  S
O1502      C1525   1.292       .  A
O1502     Eu1516   2.463   1_565  S
O1503      C1526   1.291       .  A
O1504      C1525   1.292       .  A
O1504     Eu1514   2.461       .  S
O1505      C1526   1.291       .  A
O1505     Eu1515   2.457       .  S
O1506      C1521   1.292       .  A
O1506     Eu1512   2.464   1_565  S
O1507      C1524   1.290       .  A
O1507     Eu1513   2.453       .  S
O1508      C1523   1.290       .  A
O1509      C1522   1.290       .  A
O1510      C1519   1.293   1_565  A
O1510     Eu1516   2.472   1_565  S
O1511      C1520   1.292   1_545  A
O1511     Eu1516   2.464       .  S
Eu1512     O1518   2.351   1_545  S
Eu1513     O1528   2.351       .  S
Eu1514     O1528   2.353       .  S
Eu1514     O1518   2.355       .  S
Eu1515     O1517   2.352       .  S
Eu1515     O1530   2.358       .  S
Eu1516     O1528   2.358   1_545  S
Eu1516     O1518   2.353   1_545  S
C1521      C1659   1.489       .  S
C1522      C1649   1.488       .  S
C1523      C1626   1.489       .  S
C1524      C1639   1.488       .  S
C1525      C1606   1.484       .  S
C1526      C1616   1.477       .  S
H1527      O1528   0.966       .  S
H1529      O1530   0.966       .  S
O1531      C1542   1.288       .  A
O1531     Eu1567   2.454   1_554  S
O1532      C1543   1.291       .  A
O1532     Eu1566   2.466       .  S
O1533      C1544   1.288       .  A
O1534      C1545   1.284       .  A
O1534     Eu1539   2.433       .  S
O1535      C1545   1.289       .  A
O1535     Eu1569   2.454       .  S
O1536      C1544   1.288       .  A
O1536     Eu1568   2.455       .  S
O1537      C1543   1.290   1_554  A
O1537     Eu1539   2.459   1_554  S
O1538      C1542   1.290   1_556  A
O1538     Eu1539   2.458       .  S
Eu1539     O1549   2.354       .  S
Eu1539     O1540   2.351       .  S
O1540     Eu1569   2.347       .  S
O1540     Eu1566   2.346       .  S
O1541     Eu1568   2.344       .  S
C1544      C1676   1.505       .  S
C1545      C1689   1.493       .  S
H1546      O1547   0.966       .  S
O1547     Eu1568   2.355       .  S
H1548      O1549   0.965       .  S
O1549     Eu1567   2.349       .  S
O1549     Eu1569   2.356       .  S
O1550      C1573   1.292       .  A
O1550     Eu1566   2.466   1_554  S
O1551      C1574   1.290       .  A
O1551     Eu1567   2.452       .  S
O1552      C1575   1.290       .  A
O1552     Eu1568   2.452       .  S
O1553      C1576   1.293       .  A
O1553     Eu1569   2.470       .  S
O1554      C1577   1.292       .  A
O1554     Eu1569   2.464       .  S
O1555      C1578   1.290       .  A
O1555     Eu1568   2.454       .  S
O1556      C1579   1.287       .  A
O1557      C1580   1.285       .  A
O1557     Eu1570   2.437       .  S
O1558      C1579   1.291       .  A
O1558     Eu1568   2.464       .  S
O1559      C1580   1.289       .  A
O1559     Eu1569   2.450       .  S
O1560      C1575   1.290       .  A
O1561      C1578   1.293       .  A
O1562      C1577   1.293       .  A
O1562     Eu1567   2.467       .  S
O1563      C1576   1.292       .  A
O1563     Eu1566   2.463       .  S
O1564      C1573   1.288   1_556  A
O1564     Eu1570   2.451       .  S
O1565      C1574   1.287   1_554  A
O1565     Eu1570   2.441   1_554  S
Eu1566     O1584   2.345       .  S
Eu1567     O1571   2.345       .  S
Eu1568     O1582   2.351       .  S
Eu1568     O1572   2.346       .  S
Eu1569     O1571   2.345       .  S
Eu1569     O1584   2.355       .  S
Eu1570     O1571   2.345       .  S
Eu1570     O1584   2.351       .  S
C1575      C1599   1.469       .  S
C1576      C1609   1.485       .  S
C1577      C1619   1.477       .  S
C1578      C1589   1.480       .  S
C1579      C1669   1.498       .  S
C1580      C1699   1.489       .  S
H1581      O1582   0.966       .  S
H1583      O1584   0.966       .  S
C1585      C1586   1.413       .  A
C1585      C1590   1.408       .  A
C1585     Br1592   1.935       .  S
C1586      C1587   1.412       .  A
C1587      C1588   1.407       .  A
C1587     Br1594   1.934       .  S
C1588      C1589   1.411       .  A
C1588     Br1593   1.930       .  S
C1589      C1590   1.412       .  A
C1590     Br1591   1.932       .  S
C1595      C1596   1.413       .  A
C1595      C1600   1.406       .  A
C1595     Br1602   1.932       .  S
C1596      C1597   1.413       .  A
C1597      C1598   1.403       .  A
C1597     Br1604   1.928       .  S
C1598      C1599   1.407       .  A
C1598     Br1603   1.932       .  S
C1599      C1600   1.408       .  A
C1600     Br1601   1.930       .  S
C1605      C1606   1.412       .  A
C1605      C1610   1.410       .  A
C1605     Br1612   1.933       .  S
C1606      C1607   1.413       .  A
C1607      C1608   1.410       .  A
C1607     Br1614   1.932       .  S
C1608      C1609   1.413       .  A
C1608     Br1613   1.932       .  S
C1609      C1610   1.413       .  A
C1610     Br1611   1.931       .  S
C1615      C1616   1.410       .  A
C1615      C1620   1.407       .  A
C1615     Br1622   1.932       .  S
C1616      C1617   1.412       .  A
C1617      C1618   1.411       .  A
C1617     Br1624   1.932       .  S
C1618      C1619   1.411       .  A
C1618     Br1623   1.930       .  S
C1619      C1620   1.409       .  A
C1620     Br1621   1.930       .  S
C1625      C1626   1.413       .  A
C1625      C1630   1.409       .  A
C1625     Br1632   1.931       .  S
C1626      C1627   1.414       .  A
C1627      C1628   1.410       .  A
C1627     Br1634   1.935       .  S
C1628      C1629   1.416       .  A
C1628     Br1633   1.929       .  S
C1629      C1630   1.412       .  A
C1630     Br1631   1.922       .  S
C1635      C1636   1.415       .  A
C1635      C1640   1.412       .  A
C1635     Br1642   1.929       .  S
C1636      C1637   1.412       .  A
C1637      C1638   1.410       .  A
C1637     Br1644   1.924       .  S
C1638      C1639   1.411       .  A
C1638     Br1643   1.933       .  S
C1639      C1640   1.415       .  A
C1640     Br1641   1.932       .  S
C1645      C1646   1.416       .  A
C1645      C1650   1.409       .  A
C1645     Br1652   1.930       .  S
C1646      C1647   1.415       .  A
C1647      C1648   1.411       .  A
C1647     Br1654   1.930       .  S
C1648      C1649   1.412       .  A
C1648     Br1653   1.933       .  S
C1649      C1650   1.414       .  A
C1650     Br1651   1.936       .  S
C1655      C1656   1.414       .  A
C1655      C1660   1.411       .  A
C1655     Br1662   1.932       .  S
C1656      C1657   1.412       .  A
C1657      C1658   1.410       .  A
C1657     Br1664   1.925       .  S
C1658      C1659   1.414       .  A
C1658     Br1663   1.933       .  S
C1659      C1660   1.415       .  A
C1660     Br1661   1.933       .  S
C1665      C1666   1.426       .  A
C1665      C1670   1.406       .  A
C1665     Br1672   1.942       .  S
C1666      C1667   1.428       .  A
C1667      C1668   1.412       .  A
C1667     Br1674   1.943       .  S
C1668      C1669   1.418       .  A
C1668     Br1673   1.941       .  S
C1669      C1670   1.414       .  A
C1670     Br1671   1.939       .  S
C1675      C1676   1.422       .  A
C1675      C1680   1.408       .  A
C1675     Br1682   1.941       .  S
C1676      C1677   1.421       .  A
C1677      C1678   1.407       .  A
C1677     Br1684   1.939       .  S
C1678      C1679   1.422       .  A
C1678     Br1683   1.940       .  S
C1679      C1680   1.422       .  A
C1680     Br1681   1.940       .  S
C1685      C1686   1.422       .  A
C1685      C1690   1.401       .  A
C1685     Br1692   1.942       .  S
C1686      C1687   1.425       .  A
C1687      C1688   1.411       .  A
C1687     Br1694   1.945       .  S
C1688      C1689   1.423       .  A
C1688     Br1693   1.944       .  S
C1689      C1690   1.414       .  A
C1690     Br1691   1.940       .  S
C1695      C1696   1.426       .  A
C1695      C1700   1.409       .  A
C1695     Br1702   1.943       .  S
C1696      C1697   1.423       .  A
C1697      C1698   1.400       .  A
C1697     Br1704   1.940       .  S
C1698      C1699   1.412       .  A
C1698     Br1703   1.938       .  S
C1699      C1700   1.419       .  A
C1700     Br1701   1.942       .  S
C1705      C1706   1.421       .  A
C1705      C1710   1.414       .  A
C1705     Br1712   1.934       .  S
C1707      C1708   1.404   1_556  A
C1707     Br1714   1.937       .  S
C1708     Br1713   1.937   1_554  S
C1709      C1710   1.416       .  A
C1710     Br1711   1.937       .  S
C1715      C1720   1.412       .  A
C1715     Br1722   1.938       .  S
C1716      C1717   1.412       .  A
C1717      C1718   1.406       .  A
C1717     Br1724   1.943       .  S
C1718      C1719   1.426       .  A
C1718     Br1723   1.940       .  S
C1720     Br1721   1.938       .  S
C1725      C1726   1.424       .  A
C1725      C1730   1.413       .  A
C1725     Br1732   1.941       .  S
C1727      C1728   1.409       .  A
C1727     Br1734   1.944       .  S
C1728     Br1733   1.941       .  S
C1729      C1730   1.418       .  A
C1730     Br1731   1.935       .  S
C1735      C1736   1.428       .  A
C1735      C1740   1.410       .  A
C1735     Br1742   1.943       .  S
C1737      C1738   1.410       .  A
C1737     Br1744   1.942       .  S
C1738     Br1743   1.933       .  S
C1739      C1740   1.418       .  A
C1740     Br1741   1.942       .  S
C1745      C1750   1.410       .  A
C1745     Br1752   1.922       .  S
C1746      C1747   1.417       .  A
C1747      C1748   1.410       .  A
C1747     Br1754   1.932       .  S
C1748      C1749   1.415       .  A
C1748     Br1753   1.935       .  S
C1750     Br1751   1.935       .  S
C1755      C1756   1.415       .  A
C1755      C1760   1.413       .  A
C1755     Br1762   1.917       .  S
C1757      C1758   1.412       .  A
C1757     Br1764   1.931       .  S
C1758     Br1763   1.936       .  S
C1759      C1760   1.411       .  A
C1760     Br1761   1.934       .  S
C1765      C1770   1.412       .  A
C1765     Br1772   1.927       .  S
C1766      C1767   1.414       .  A
C1767      C1768   1.410       .  A
C1767     Br1774   1.928       .  S
C1768      C1769   1.414       .  A
C1768     Br1773   1.931       .  S
C1770     Br1771   1.929       .  S
C1775      C1776   1.409       .  A
C1775      C1780   1.406       .  A
C1775     Br1782   1.915       .  S
C1777      C1778   1.409       .  A
C1777     Br1784   1.927       .  S
C1778     Br1783   1.928       .  S
C1779      C1780   1.406       .  A
C1780     Br1781   1.928       .  S
C1785      C1786   1.408   1_455  A
C1785      C1790   1.407       .  A
C1785     Br1792   1.922       .  S
C1786      C3611   1.408       .  A
C1787      C3610   1.408       .  A
C1787      C1788   1.409       .  A
C1787     Br1794   1.931       .  S
C1788      C3613   1.410       .  A
C1788     Br1793   1.924       .  S
C1789      C3612   1.410       .  A
C1789      C1790   1.409   1_655  A
C1790     Br1791   1.930       .  S
C1795      C1796   1.409       .  A
C1795      C1800   1.409       .  A
C1795     Br1802   1.927       .  S
C1796      C3621   1.408   1_455  A
C1797      C3620   1.408       .  A
C1797      C1798   1.406       .  A
C1797     Br1804   1.931       .  S
C1798      C3623   1.409       .  A
C1798     Br1803   1.926       .  S
C1799      C3622   1.409   1_455  A
C1799      C1800   1.409       .  A
C1800     Br1801   1.930       .  S
C1805      C1806   1.413   1_655  A
C1805      C1810   1.411       .  A
C1805     Br1812   1.934       .  S
C1806      C3631   1.410       .  A
C1807      C3630   1.410       .  A
C1807      C1808   1.409       .  A
C1807     Br1814   1.932       .  S
C1808      C3633   1.419       .  A
C1808     Br1813   1.934       .  S
C1809      C3632   1.419       .  A
C1809      C1810   1.420   1_455  A
C1810     Br1811   1.933       .  S
C1815      C1816   1.410       .  A
C1815      C1820   1.411       .  A
C1815     Br1822   1.928       .  S
C1816      C3641   1.407   1_455  A
C1817      C3640   1.407       .  A
C1817      C1818   1.407       .  A
C1817     Br1824   1.921       .  S
C1818      C3643   1.409       .  A
C1818     Br1823   1.928       .  S
C1819      C3642   1.409   1_455  A
C1819      C1820   1.410       .  A
C1820     Br1821   1.927       .  S
O1825      C1836   1.296       .  A
O1825     Eu1861   2.490       .  S
O1826      C1837   1.294       .  A
O1826     Eu1860   2.478   1_545  S
O1827      C1838   1.293   1_556  A
O1827     Eu1833   2.481       .  S
O1828      C1839   1.293       .  A
O1829      C1839   1.287       .  A
O1829     Eu1863   2.449       .  S
O1830      C1838   1.284       .  A
O1830     Eu1862   2.435   1_545  S
O1831      C1837   1.289       .  A
O1831     Eu2289   2.446       .  S
O1832      C1836   1.289       .  A
O1832     Eu1833   2.454   1_554  S
Eu1833     O2287   2.446       .  S
Eu1833     O1835   2.347   1_556  S
Eu1833     O2297   2.355       .  S
O1834     Eu2319   2.346       .  S
O1835     Eu1861   2.352       .  S
O1835     Eu1862   2.357   1_545  S
C1836      C2272   1.482       .  S
C1837      C2242   1.474       .  S
C1838      C2192   1.508       .  S
C1839      C2175   1.504       .  S
H1840      O1841   0.966       .  S
O1841     Eu2289   2.355       .  S
O1841     Eu2318   2.353   1_545  S
O1841     Eu1860   2.359   1_545  S
H1842      O1843   0.966       .  S
O1843     Eu1863   2.370   1_554  S
O1844      C1867   1.293       .  A
O1844     Eu2772   2.474       .  S
O1845      C1868   1.291       .  A
O1845     Eu2773   2.469       .  S
O1846      C1869   1.301   1_545  A
O1846     Eu2318   2.515   1_545  S
O1847      C1870   1.298       .  A
O1847     Eu2319   2.497   1_565  S
O1848      C1871   1.292       .  A
O1848     Eu1863   2.469   1_554  S
O1849      C1872   1.299   1_565  A
O1849     Eu1862   2.501       .  S
O1850      C1873   1.292       .  A
O1850     Eu1864   2.474       .  S
O1851      C1874   1.294       .  A
O1852      C1873   1.285   1_556  A
O1852     Eu2774   2.439   1_556  S
O1853      C1874   1.286       .  A
O1853     Eu2775   2.446   1_554  S
O1854      C1869   1.289       .  A
O1854     Eu1860   2.453       .  S
O1855      C1872   1.289       .  A
O1855     Eu1861   2.448       .  S
O1856      C1871   1.294       .  A
O1857      C1870   1.288       .  A
O1858      C1867   1.290       .  A
O1858     Eu2320   2.458       .  S
O1859      C1868   1.293       .  A
O1859     Eu1864   2.473       .  S
Eu1860     O2756   2.474       .  S
Eu1860     O2778   2.352       .  S
Eu1861     O2757   2.469   1_545  S
Eu1861     O2788   2.366   1_545  S
Eu1862     O2302   2.515   1_564  S
Eu1862     O2764   2.439   1_554  S
Eu1862     O2297   2.353   1_564  S
Eu1862     O2788   2.359       .  S
Eu1862     O3234   2.351   1_554  S
Eu1863     O2303   2.497   1_545  S
Eu1863     O2765   2.446   1_546  S
Eu1863     O2290   2.346       .  S
Eu1863     O2777   2.356   1_546  S
Eu1863     O3246   2.352   1_545  S
Eu1864     O2314   2.458   1_554  S
Eu1864     O1876   2.349       .  S
Eu1864     O2322   2.363   1_554  S
O1865     Eu2775   2.356   1_554  S
O1866     Eu2772   2.352       .  S
O1866     Eu3230   2.351       .  S
O1866     Eu2320   2.363       .  S
C1867      C2255   1.475       .  S
C1868      C2265   1.499       .  S
C1869      C2212   1.506   1_565  S
C1870      C2202   1.497       .  S
C1871      C2232   1.482       .  S
C1872      C2222   1.492   1_545  S
C1873      C2182   1.508   1_554  S
C1874      C2165   1.504       .  S
H1875      O1876   0.965       .  S
O1876     Eu2773   2.366       .  S
O1876     Eu2774   2.359       .  S
H1877      O1878   0.966       .  S
O1878     Eu3231   2.352       .  S
O1879      C1890   1.291       .  A
O1879     Eu1915   2.460       .  S
O1880      C1891   1.291       .  A
O1880     Eu1914   2.460       .  S
O1881      C1892   1.292       .  A
O1881     Eu1887   2.466       .  S
O1882      C1893   1.290       .  A
O1883      C1893   1.296       .  A
O1883     Eu1917   2.484       .  S
O1884      C1892   1.292       .  A
O1884     Eu1916   2.464       .  S
O1885      C1891   1.293       .  A
O1885     Eu1887   2.473       .  S
O1886      C1890   1.293       .  A
O1886     Eu1887   2.469       .  S
Eu1887     O1889   2.351       .  S
Eu1887     O1895   2.345       .  S
O1888     Eu1917   2.356       .  S
O1889     Eu1915   2.354       .  S
O1889     Eu1916   2.347       .  S
C1890      C2275   1.476       .  S
C1891      C2245   1.477       .  S
C1892      C2102   1.492       .  S
C1893      C2085   1.493       .  S
H1894      O1895   0.966       .  S
O1895     Eu1916   2.354       .  S
O1895     Eu1914   2.354       .  S
H1896      O1897   0.966       .  S
O1897     Eu1917   2.350       .  S
O1898      C1921   1.289       .  A
O1898     Eu1914   2.452       .  S
O1899      C1922   1.293       .  A
O1899     Eu1915   2.469       .  S
O1900      C1923   1.285       .  A
O1900     Eu1916   2.444       .  S
O1901      C1924   1.285       .  A
O1901     Eu1917   2.437       .  S
O1902      C1925   1.287       .  A
O1902     Eu1917   2.453       .  S
O1903      C1926   1.288       .  A
O1903     Eu1916   2.451       .  S
O1904      C1927   1.292       .  A
O1904     Eu1918   2.467       .  S
O1905      C1928   1.291       .  A
O1906      C1927   1.294       .  A
O1906     Eu1916   2.475       .  S
O1907      C1928   1.297       .  A
O1907     Eu1917   2.487       .  S
O1908      C1923   1.286       .  A
O1908     Eu1914   2.448       .  S
O1909      C1926   1.288       .  A
O1909     Eu1915   2.457       .  S
O1910      C1925   1.288       .  A
O1911      C1924   1.288       .  A
O1912      C1921   1.291       .  A
O1912     Eu1918   2.465       .  S
O1913      C1922   1.289       .  A
O1913     Eu1918   2.447       .  S
Eu1914     O1920   2.355       .  S
Eu1915     O1930   2.352       .  S
Eu1916     O1930   2.353       .  S
Eu1916     O1920   2.354       .  S
Eu1917     O1919   2.350       .  S
Eu1917     O1932   2.361       .  S
Eu1918     O1930   2.351       .  S
Eu1918     O1920   2.350       .  S
C1921      C2252   1.472       .  S
C1922      C2262   1.487       .  S
C1923      C2142   1.502       .  S
C1924      C2152   1.501       .  S
C1925      C2122   1.508       .  S
C1926      C2135   1.504       .  S
C1927      C2112   1.491       .  S
C1928      C2092   1.495       .  S
H1929      O1930   0.965       .  S
H1931      O1932   0.966       .  S
O1933      C1944   1.290       .  A
O1933     Eu1969   2.456       .  S
O1934      C1945   1.290       .  A
O1934     Eu1968   2.456       .  S
O1935      C1946   1.289       .  A
O1935     Eu1941   2.448       .  S
O1936      C1947   1.290       .  A
O1936     Eu2853   2.451       .  S
O1937      C1947   1.291       .  A
O1937     Eu1971   2.455       .  S
O1938      C1946   1.292       .  A
O1938     Eu1970   2.461       .  S
O1939      C1945   1.295       .  A
O1939     Eu1941   2.486       .  S
O1940      C1944   1.291       .  A
O1940     Eu1941   2.459       .  S
Eu1941     O2848   2.451       .  S
Eu1941     O2863   2.359       .  S
Eu1941     O1943   2.360       .  S
Eu1941     O2854   2.348       .  S
Eu1941     O1949   2.350       .  S
O1942     Eu2853   2.348       .  S
O1942     Eu1971   2.354       .  S
O1942     Eu2880   2.349       .  S
O1943     Eu1969   2.354       .  S
O1943     Eu1970   2.350       .  S
C1944      C3147   1.473       .  S
C1945      C3137   1.489       .  S
C1946      C2052   1.476       .  S
C1947      C2042   1.478       .  S
H1948      O1949   0.966       .  S
O1949     Eu1970   2.361       .  S
O1949     Eu1968   2.354       .  S
H1950      O1951   0.965       .  S
O1951     Eu2853   2.359       .  S
O1951     Eu2881   2.356   1_545  S
O1951     Eu1971   2.353       .  S
O1952      C1975   1.290       .  A
O1952     Eu1968   2.454       .  S
O1953      C1976   1.291       .  A
O1953     Eu1969   2.457       .  S
O1954      C1977   1.292       .  A
O1954     Eu1970   2.465       .  S
O1955      C1978   1.293       .  A
O1955     Eu1971   2.471       .  S
O1956      C1979   1.292       .  A
O1956     Eu1971   2.468       .  S
O1957      C1980   1.295       .  A
O1957     Eu1970   2.482       .  S
O1958      C1981   1.292       .  A
O1958     Eu1972   2.463       .  S
O1959      C1982   1.291       .  A
O1959     Eu2884   2.464       .  S
O1960      C1981   1.292       .  A
O1960     Eu1970   2.461       .  S
O1961      C1982   1.291       .  A
O1961     Eu1971   2.457       .  S
O1962      C1977   1.292       .  A
O1962     Eu1968   2.464       .  S
O1963      C1980   1.290       .  A
O1963     Eu1969   2.453       .  S
O1964      C1979   1.290       .  A
O1964     Eu2881   2.454   1_545  S
O1965      C1978   1.290       .  A
O1965     Eu2880   2.454       .  S
O1966      C1975   1.293       .  A
O1966     Eu1972   2.472       .  S
O1967      C1976   1.292       .  A
O1967     Eu1972   2.464       .  S
Eu1968     O2877   2.454       .  S
Eu1968     O2854   2.349       .  S
Eu1968     O2898   2.358       .  S
Eu1968     O1974   2.351       .  S
Eu1969     O2876   2.454       .  S
Eu1969     O2863   2.356       .  S
Eu1969     O2885   2.350       .  S
Eu1969     O1984   2.351       .  S
Eu1970     O1984   2.353       .  S
Eu1970     O1974   2.355       .  S
Eu1971     O1973   2.352       .  S
Eu1971     O1986   2.358       .  S
Eu1972     O2871   2.464       .  S
Eu1972     O2885   2.353       .  S
Eu1972     O1984   2.358       .  S
Eu1972     O2898   2.358       .  S
Eu1972     O1974   2.353       .  S
O1973     Eu2881   2.350   1_545  S
O1973     Eu2884   2.353       .  S
C1975      C3127   1.490       .  S
C1976      C3117   1.489       .  S
C1977      C2115   1.489       .  S
C1978      C2105   1.488       .  S
C1979      C2082   1.489       .  S
C1980      C2095   1.488       .  S
C1981      C2062   1.484       .  S
C1982      C2072   1.477       .  S
H1983      O1984   0.966       .  S
H1985      O1986   0.966       .  S
O1986     Eu2880   2.358       .  S
O1986     Eu2884   2.358       .  S
O1987      C1998   1.288       .  A
O1987     Eu2023   2.454       .  S
O1988      C1999   1.291       .  A
O1988     Eu2022   2.466       .  S
O1989      C2000   1.288       .  A
O1989     Eu2451   2.452   1_554  S
O1990      C2001   1.284       .  A
O1990     Eu1995   2.433       .  S
O1991      C2001   1.289       .  A
O1991     Eu2025   2.455       .  S
O1992      C2000   1.288       .  A
O1992     Eu2024   2.455       .  S
O1993      C1999   1.290       .  A
O1993     Eu1995   2.459       .  S
O1994      C1998   1.290       .  A
O1994     Eu1995   2.458       .  S
Eu1995     O2445   2.452       .  S
Eu1995     O2005   2.354       .  S
Eu1995     O2453   2.345       .  S
Eu1995     O1996   2.351       .  S
Eu1995     O2459   2.345       .  S
O1996     Eu2025   2.347       .  S
O1996     Eu2022   2.346       .  S
O1997     Eu2451   2.345   1_554  S
O1997     Eu2479   2.347   1_554  S
O1997     Eu2024   2.344       .  S
C1998      C2651   1.500       .  S
C1999      C2641   1.502       .  S
C2000      C2132   1.505       .  S
C2001      C2145   1.493       .  S
H2002      O2003   0.966       .  S
O2003     Eu2451   2.345   1_554  S
O2003     Eu2024   2.355       .  S
O2003     Eu2478   2.352   1_554  S
H2004      O2005   0.965       .  S
O2005     Eu2023   2.349       .  S
O2005     Eu2025   2.356       .  S
O2006      C2029   1.292       .  A
O2006     Eu2022   2.466       .  S
O2007      C2030   1.290       .  A
O2007     Eu2023   2.452       .  S
O2008      C2031   1.290       .  A
O2008     Eu2024   2.452       .  S
O2009      C2032   1.293       .  A
O2009     Eu2025   2.470       .  S
O2010      C2033   1.292       .  A
O2010     Eu2025   2.464       .  S
O2011      C2034   1.290       .  A
O2011     Eu2024   2.454       .  S
O2012      C2035   1.287       .  A
O2012     Eu2482   2.445   1_554  S
O2013      C2036   1.285       .  A
O2013     Eu2026   2.437       .  S
O2014      C2035   1.291       .  A
O2014     Eu2024   2.464       .  S
O2015      C2036   1.289       .  A
O2015     Eu2025   2.450       .  S
O2016      C2031   1.290       .  A
O2016     Eu2478   2.446   1_554  S
O2017      C2034   1.293       .  A
O2017     Eu2479   2.470   1_554  S
O2018      C2033   1.293       .  A
O2018     Eu2023   2.467       .  S
O2019      C2032   1.292       .  A
O2019     Eu2022   2.464       .  S
O2020      C2029   1.288       .  A
O2020     Eu2026   2.451       .  S
O2021      C2030   1.287       .  A
O2021     Eu2026   2.441       .  S
Eu2022     O2472   2.446       .  S
Eu2022     O2459   2.352       .  S
Eu2022     O2040   2.345       .  S
Eu2022     O2484   2.352       .  S
Eu2023     O2473   2.470       .  S
Eu2023     O2453   2.347       .  S
Eu2023     O2027   2.345       .  S
Eu2023     O2494   2.351       .  S
Eu2024     O2038   2.352       .  S
Eu2024     O2028   2.346       .  S
Eu2025     O2027   2.345       .  S
Eu2025     O2040   2.355       .  S
Eu2026     O2468   2.446       .  S
Eu2026     O2027   2.345       .  S
Eu2026     O2494   2.351       .  S
Eu2026     O2040   2.351       .  S
Eu2026     O2484   2.341       .  S
O2028     Eu2478   2.352   1_554  S
O2028     Eu2482   2.341   1_554  S
C2029      C2618   1.495       .  S
C2030      C2628   1.489       .  S
C2031      C2055   1.469       .  S
C2032      C2065   1.485       .  S
C2033      C2075   1.477       .  S
C2034      C2045   1.480       .  S
C2035      C2125   1.497       .  S
C2036      C2155   1.489       .  S
H2037      O2038   0.966       .  S
O2038     Eu2479   2.350   1_554  S
O2038     Eu2482   2.351   1_554  S
H2039      O2040   0.966       .  S
C2041      C2042   1.413       .  A
C2041      C2046   1.408       .  A
C2041     Br2048   1.935       .  S
C2042      C2043   1.412       .  A
C2043      C2044   1.407       .  A
C2043     Br2050   1.934       .  S
C2044      C2045   1.411       .  A
C2044     Br2049   1.930       .  S
C2045      C2046   1.412       .  A
C2046     Br2047   1.932       .  S
C2051      C2052   1.413       .  A
C2051      C2056   1.406       .  A
C2051     Br2058   1.932       .  S
C2052      C2053   1.413       .  A
C2053      C2054   1.403       .  A
C2053     Br2060   1.928       .  S
C2054      C2055   1.407       .  A
C2054     Br2059   1.932       .  S
C2055      C2056   1.408       .  A
C2056     Br2057   1.930       .  S
C2061      C2062   1.412       .  A
C2061      C2066   1.410       .  A
C2061     Br2068   1.933       .  S
C2062      C2063   1.413       .  A
C2063      C2064   1.410       .  A
C2063     Br2070   1.932       .  S
C2064      C2065   1.413       .  A
C2064     Br2069   1.932       .  S
C2065      C2066   1.413       .  A
C2066     Br2067   1.931       .  S
C2071      C2072   1.410       .  A
C2071      C2076   1.407       .  A
C2071     Br2078   1.932       .  S
C2072      C2073   1.412       .  A
C2073      C2074   1.411       .  A
C2073     Br2080   1.932       .  S
C2074      C2075   1.411       .  A
C2074     Br2079   1.930       .  S
C2075      C2076   1.409       .  A
C2076     Br2077   1.930       .  S
C2081      C2082   1.413       .  A
C2081      C2086   1.409       .  A
C2081     Br2088   1.931       .  S
C2082      C2083   1.414       .  A
C2083      C2084   1.410       .  A
C2083     Br2090   1.935       .  S
C2084      C2085   1.416       .  A
C2084     Br2089   1.929       .  S
C2085      C2086   1.412       .  A
C2086     Br2087   1.922       .  S
C2091      C2092   1.414       .  A
C2091      C2096   1.412       .  A
C2091     Br2098   1.929       .  S
C2092      C2093   1.412       .  A
C2093      C2094   1.410       .  A
C2093     Br2100   1.924       .  S
C2094      C2095   1.411       .  A
C2094     Br2099   1.933       .  S
C2095      C2096   1.415       .  A
C2096     Br2097   1.932       .  S
C2101      C2102   1.416       .  A
C2101      C2106   1.409       .  A
C2101     Br2108   1.930       .  S
C2102      C2103   1.415       .  A
C2103      C2104   1.411       .  A
C2103     Br2110   1.930       .  S
C2104      C2105   1.412       .  A
C2104     Br2109   1.933       .  S
C2105      C2106   1.414       .  A
C2106     Br2107   1.936       .  S
C2111      C2112   1.414       .  A
C2111      C2116   1.411       .  A
C2111     Br2118   1.932       .  S
C2112      C2113   1.412       .  A
C2113      C2114   1.410       .  A
C2113     Br2120   1.925       .  S
C2114      C2115   1.414       .  A
C2114     Br2119   1.933       .  S
C2115      C2116   1.415       .  A
C2116     Br2117   1.933       .  S
C2121      C2122   1.426       .  A
C2121      C2126   1.406       .  A
C2121     Br2128   1.942       .  S
C2122      C2123   1.428       .  A
C2123      C2124   1.412       .  A
C2123     Br2130   1.943       .  S
C2124      C2125   1.418       .  A
C2124     Br2129   1.941       .  S
C2125      C2126   1.414       .  A
C2126     Br2127   1.939       .  S
C2131      C2132   1.422       .  A
C2131      C2136   1.408       .  A
C2131     Br2138   1.941       .  S
C2132      C2133   1.421       .  A
C2133      C2134   1.407       .  A
C2133     Br2140   1.939       .  S
C2134      C2135   1.422       .  A
C2134     Br2139   1.940       .  S
C2135      C2136   1.422       .  A
C2136     Br2137   1.940       .  S
C2141      C2142   1.421       .  A
C2141      C2146   1.401       .  A
C2141     Br2148   1.942       .  S
C2142      C2143   1.425       .  A
C2143      C2144   1.411       .  A
C2143     Br2150   1.945       .  S
C2144      C2145   1.423       .  A
C2144     Br2149   1.944       .  S
C2145      C2146   1.414       .  A
C2146     Br2147   1.940       .  S
C2151      C2152   1.426       .  A
C2151      C2156   1.409       .  A
C2151     Br2158   1.943       .  S
C2152      C2153   1.423       .  A
C2153      C2154   1.400       .  A
C2153     Br2160   1.940       .  S
C2154      C2155   1.412       .  A
C2154     Br2159   1.938       .  S
C2155      C2156   1.419       .  A
C2156     Br2157   1.942       .  S
C2161      C2162   1.421       .  A
C2161      C2166   1.414       .  A
C2161     Br2168   1.934       .  S
C2162      C2485   1.495       .  S
C2162      C2619   1.414   1_554  A
C2163      C2618   1.414       .  A
C2163      C2164   1.404       .  A
C2163     Br2170   1.937       .  S
C2164      C2621   1.418       .  A
C2164     Br2169   1.937       .  S
C2165      C2620   1.418       .  A
C2165      C2166   1.416       .  A
C2166     Br2167   1.937       .  S
C2171      C2628   1.416       .  A
C2171      C2176   1.412       .  A
C2171     Br2178   1.938       .  S
C2172      C2486   1.489       .  S
C2172      C2627   1.416       .  A
C2172      C2173   1.412   1_556  A
C2173      C2174   1.406       .  A
C2173     Br2180   1.943       .  S
C2174      C2175   1.426   1_554  A
C2174     Br2179   1.940       .  S
C2175      C2632   1.423       .  A
C2176      C2631   1.423       .  A
C2176     Br2177   1.938       .  S
C2181      C2182   1.424       .  A
C2181      C2186   1.413       .  A
C2181     Br2188   1.941       .  S
C2182      C2639   1.427   1_556  A
C2183      C2638   1.427       .  A
C2183      C2184   1.409       .  A
C2183     Br2190   1.944       .  S
C2184      C2641   1.417       .  A
C2184     Br2189   1.941       .  S
C2185      C2455   1.502       .  S
C2185      C2640   1.417   1_556  A
C2185      C2186   1.418       .  A
C2186     Br2187   1.935       .  S
C2191      C2192   1.428   1_556  A
C2191      C2196   1.410       .  A
C2191     Br2198   1.943   1_556  S
C2192      C2649   1.423       .  A
C2193      C2648   1.423       .  A
C2193      C2194   1.410       .  A
C2193     Br2200   1.942       .  S
C2194      C2651   1.417       .  A
C2194     Br2199   1.933       .  S
C2195      C2454   1.500       .  S
C2195      C2650   1.417       .  A
C2195      C2196   1.418   1_554  A
C2196     Br2197   1.942       .  S
C2201      C3114   1.411       .  A
C2201      C2206   1.410       .  A
C2201     Br2208   1.922       .  S
C2202      C3113   1.411       .  A
C2202      C2203   1.417   1_565  A
C2203      C2204   1.410       .  A
C2203     Br2210   1.932       .  S
C2204      C2205   1.415   1_545  A
C2204     Br2209   1.935       .  S
C2205      C2888   1.489       .  S
C2205      C3118   1.415       .  A
C2206      C3117   1.415       .  A
C2206     Br2207   1.935       .  S
C2211      C2212   1.415       .  A
C2211      C2216   1.413       .  A
C2211     Br2218   1.917       .  S
C2212      C3125   1.420   1_545  A
C2213      C3124   1.420       .  A
C2213      C2214   1.412       .  A
C2213     Br2220   1.931       .  S
C2214      C3127   1.413       .  A
C2214     Br2219   1.936       .  S
C2215      C2887   1.490   1_565  S
C2215      C3126   1.413       .  A
C2215      C2216   1.411   1_565  A
C2216     Br2217   1.934       .  S
C2221      C3134   1.409       .  A
C2221      C2226   1.412       .  A
C2221     Br2228   1.927       .  S
C2222      C3133   1.409       .  A
C2222      C2223   1.414   1_565  A
C2223      C2224   1.410       .  A
C2223     Br2230   1.928       .  S
C2224      C2225   1.414       .  A
C2224     Br2229   1.931       .  S
C2225      C2857   1.489       .  S
C2225      C3138   1.412   1_545  A
C2226      C3137   1.412       .  A
C2226     Br2227   1.929       .  S
C2231      C2232   1.409       .  A
C2231      C2236   1.406       .  A
C2231     Br2238   1.915       .  S
C2232      C3145   1.410   1_545  A
C2233      C3144   1.410       .  A
C2233      C2234   1.409       .  A
C2233     Br2240   1.927       .  S
C2234      C3147   1.408       .  A
C2234     Br2239   1.928       .  S
C2235      C2856   1.473       .  S
C2235      C3146   1.408       .  A
C2235      C2236   1.406   1_565  A
C2236     Br2237   1.929       .  S
C2241      C2242   1.408       .  A
C2241      C2246   1.407       .  A
C2241     Br2248   1.922       .  S
C2243      C2244   1.409       .  A
C2243     Br2250   1.931       .  S
C2244     Br2249   1.924       .  S
C2245      C2246   1.409       .  A
C2246     Br2247   1.930       .  S
C2251      C2252   1.409       .  A
C2251      C2256   1.409       .  A
C2251     Br2258   1.927       .  S
C2253      C2254   1.406       .  A
C2253     Br2260   1.931       .  S
C2254     Br2259   1.926       .  S
C2255      C2256   1.409       .  A
C2256     Br2257   1.929       .  S
C2261      C2262   1.413       .  A
C2261      C2266   1.411       .  A
C2261     Br2268   1.934       .  S
C2263      C2264   1.409       .  A
C2263     Br2270   1.932       .  S
C2264     Br2269   1.934       .  S
C2265      C2266   1.420       .  A
C2266     Br2267   1.933       .  S
C2271      C2272   1.410       .  A
C2271      C2276   1.411       .  A
C2271     Br2278   1.928       .  S
C2273      C2274   1.407       .  A
C2273     Br2280   1.921       .  S
C2274     Br2279   1.928       .  S
C2275      C2276   1.410       .  A
C2276     Br2277   1.927       .  S
O2281      C2292   1.296       .  A
O2281     Eu2317   2.490       .  S
O2282      C2293   1.294       .  A
O2282     Eu2316   2.478   1_545  S
O2283      C2294   1.293       .  A
O2283     Eu2289   2.481       .  S
O2284      C2295   1.293       .  A
O2285      C2295   1.287       .  A
O2285     Eu2319   2.449       .  S
O2286      C2294   1.284       .  A
O2286     Eu2318   2.435   1_545  S
O2287      C2293   1.289       .  A
O2288      C2292   1.289       .  A
O2288     Eu2289   2.454       .  S
Eu2289     O2291   2.347       .  S
O2291     Eu2317   2.352       .  S
O2291     Eu2318   2.357   1_545  S
C2292      C2728   1.482       .  S
C2293      C2698   1.474       .  S
C2294      C2648   1.508       .  S
C2295      C2631   1.504       .  S
H2296      O2297   0.966       .  S
O2297     Eu2316   2.359   1_545  S
H2298      O2299   0.966       .  S
O2299     Eu2319   2.370       .  S
O2300      C2323   1.293       .  A
O2300     Eu3228   2.474       .  S
O2301      C2324   1.291       .  A
O2301     Eu3229   2.469       .  S
O2302      C2325   1.301   1_545  A
O2303      C2326   1.298       .  A
O2304      C2327   1.292       .  A
O2304     Eu2319   2.469       .  S
O2305      C2328   1.299   1_565  A
O2305     Eu2318   2.501       .  S
O2306      C2329   1.292       .  A
O2306     Eu2320   2.474       .  S
O2307      C2330   1.294       .  A
O2308      C2329   1.285       .  A
O2308     Eu3230   2.439       .  S
O2309      C2330   1.286       .  A
O2309     Eu3231   2.446       .  S
O2310      C2325   1.289       .  A
O2310     Eu2316   2.453       .  S
O2311      C2328   1.289       .  A
O2311     Eu2317   2.448       .  S
O2312      C2327   1.294       .  A
O2313      C2326   1.288       .  A
O2314      C2323   1.290       .  A
O2315      C2324   1.293       .  A
O2315     Eu2320   2.473       .  S
Eu2316     O3212   2.474       .  S
Eu2316     O3234   2.352       .  S
Eu2317     O3213   2.469   1_545  S
Eu2317     O3244   2.366   1_545  S
Eu2318     O3220   2.439       .  S
Eu2318     O3244   2.359       .  S
Eu2318     O2778   2.351       .  S
Eu2319     O3221   2.446   1_545  S
Eu2319     O3233   2.356   1_545  S
Eu2319     O2790   2.352   1_545  S
Eu2320     O2332   2.349       .  S
O2321     Eu3231   2.356       .  S
O2322     Eu3228   2.352       .  S
O2322     Eu2774   2.351   1_556  S
C2323      C2711   1.475       .  S
C2324      C2721   1.499       .  S
C2325      C2668   1.506   1_565  S
C2326      C2658   1.497       .  S
C2327      C2688   1.482       .  S
C2328      C2678   1.492   1_545  S
C2329      C2638   1.508       .  S
C2330      C2621   1.504       .  S
H2331      O2332   0.965       .  S
O2332     Eu3229   2.366       .  S
O2332     Eu3230   2.359       .  S
H2333      O2334   0.966       .  S
O2334     Eu2775   2.352       .  S
O2335      C2346   1.291       .  A
O2335     Eu2371   2.461       .  S
O2336      C2347   1.291       .  A
O2336     Eu2370   2.461       .  S
O2337      C2348   1.292       .  A
O2337     Eu2343   2.466       .  S
O2338      C2349   1.290       .  A
O2339      C2349   1.296       .  A
O2339     Eu2373   2.484       .  S
O2340      C2348   1.292       .  A
O2340     Eu2372   2.464       .  S
O2341      C2347   1.293       .  A
O2341     Eu2343   2.473       .  S
O2342      C2346   1.293       .  A
O2342     Eu2343   2.469       .  S
Eu2343     O2345   2.351       .  S
Eu2343     O2351   2.345       .  S
O2344     Eu2373   2.356       .  S
O2345     Eu2371   2.354       .  S
O2345     Eu2372   2.347       .  S
C2346      C2731   1.476       .  S
C2347      C2701   1.477       .  S
C2348      C2558   1.492       .  S
C2349      C2541   1.493       .  S
H2350      O2351   0.966       .  S
O2351     Eu2372   2.354       .  S
O2351     Eu2370   2.354       .  S
H2352      O2353   0.966       .  S
O2353     Eu2373   2.350       .  S
O2354      C2377   1.289       .  A
O2354     Eu2370   2.452       .  S
O2355      C2378   1.293       .  A
O2355     Eu2371   2.469       .  S
O2356      C2379   1.285       .  A
O2356     Eu2372   2.444       .  S
O2357      C2380   1.285       .  A
O2357     Eu2373   2.437       .  S
O2358      C2381   1.287       .  A
O2358     Eu2373   2.453       .  S
O2359      C2382   1.288       .  A
O2359     Eu2372   2.451       .  S
O2360      C2383   1.292       .  A
O2360     Eu2374   2.467       .  S
O2361      C2384   1.291       .  A
O2362      C2383   1.294       .  A
O2362     Eu2372   2.475       .  S
O2363      C2384   1.297       .  A
O2363     Eu2373   2.487       .  S
O2364      C2379   1.287       .  A
O2364     Eu2370   2.448       .  S
O2365      C2382   1.288       .  A
O2365     Eu2371   2.457       .  S
O2366      C2381   1.288       .  A
O2367      C2380   1.288       .  A
O2368      C2377   1.292       .  A
O2368     Eu2374   2.465       .  S
O2369      C2378   1.289       .  A
O2369     Eu2374   2.447       .  S
Eu2370     O2376   2.355       .  S
Eu2371     O2386   2.352       .  S
Eu2372     O2386   2.353       .  S
Eu2372     O2376   2.354       .  S
Eu2373     O2375   2.350       .  S
Eu2373     O2388   2.361       .  S
Eu2374     O2386   2.352       .  S
Eu2374     O2376   2.350       .  S
C2377      C2708   1.472       .  S
C2378      C2718   1.487       .  S
C2379      C2598   1.502       .  S
C2380      C2608   1.501       .  S
C2381      C2578   1.508       .  S
C2382      C2591   1.504       .  S
C2383      C2568   1.491       .  S
C2384      C2548   1.495       .  S
H2385      O2386   0.965       .  S
H2387      O2388   0.966       .  S
O2389      C2400   1.290       .  A
O2389     Eu2425   2.456       .  S
O2390      C2401   1.290       .  A
O2390     Eu2424   2.456       .  S
O2391      C2402   1.289       .  A
O2391     Eu2397   2.448       .  S
O2392      C2403   1.290       .  A
O2392     Eu3309   2.451       .  S
O2393      C2403   1.291       .  A
O2393     Eu2427   2.455       .  S
O2394      C2402   1.292       .  A
O2394     Eu2426   2.461       .  S
O2395      C2401   1.295       .  A
O2395     Eu2397   2.486       .  S
O2396      C2400   1.291       .  A
O2396     Eu2397   2.459       .  S
Eu2397     O3304   2.451       .  S
Eu2397     O3319   2.359       .  S
Eu2397     O2399   2.360       .  S
Eu2397     O3310   2.348       .  S
Eu2397     O2405   2.350       .  S
O2398     Eu3309   2.348       .  S
O2398     Eu2427   2.354       .  S
O2398     Eu3336   2.349       .  S
O2399     Eu2425   2.354       .  S
O2399     Eu2426   2.350       .  S
C2400      C3603   1.473       .  S
C2401      C3593   1.489       .  S
C2402      C2508   1.476       .  S
C2403      C2498   1.478       .  S
H2404      O2405   0.966       .  S
O2405     Eu2426   2.361       .  S
O2405     Eu2424   2.354       .  S
H2406      O2407   0.965       .  S
O2407     Eu3309   2.359       .  S
O2407     Eu3337   2.356   1_545  S
O2407     Eu2427   2.353       .  S
O2408      C2431   1.290       .  A
O2408     Eu2424   2.454       .  S
O2409      C2432   1.291       .  A
O2409     Eu2425   2.456       .  S
O2410      C2433   1.292       .  A
O2410     Eu2426   2.465       .  S
O2411      C2434   1.293       .  A
O2411     Eu2427   2.471       .  S
O2412      C2435   1.292       .  A
O2412     Eu2427   2.468       .  S
O2413      C2436   1.295       .  A
O2413     Eu2426   2.482       .  S
O2414      C2437   1.292       .  A
O2414     Eu2428   2.463       .  S
O2415      C2438   1.291       .  A
O2415     Eu3340   2.464       .  S
O2416      C2437   1.292       .  A
O2416     Eu2426   2.461       .  S
O2417      C2438   1.291       .  A
O2417     Eu2427   2.457       .  S
O2418      C2433   1.292       .  A
O2418     Eu2424   2.464       .  S
O2419      C2436   1.290       .  A
O2419     Eu2425   2.453       .  S
O2420      C2435   1.290       .  A
O2420     Eu3337   2.454   1_545  S
O2421      C2434   1.290       .  A
O2421     Eu3336   2.454       .  S
O2422      C2431   1.293       .  A
O2422     Eu2428   2.472       .  S
O2423      C2432   1.292       .  A
O2423     Eu2428   2.464       .  S
Eu2424     O3333   2.454       .  S
Eu2424     O3310   2.349       .  S
Eu2424     O3354   2.358       .  S
Eu2424     O2430   2.351       .  S
Eu2425     O3332   2.454       .  S
Eu2425     O3319   2.356       .  S
Eu2425     O3341   2.350       .  S
Eu2425     O2440   2.351       .  S
Eu2426     O2440   2.353       .  S
Eu2426     O2430   2.355       .  S
Eu2427     O2429   2.352       .  S
Eu2427     O2442   2.358       .  S
Eu2428     O3327   2.464       .  S
Eu2428     O3341   2.353       .  S
Eu2428     O2440   2.358       .  S
Eu2428     O3354   2.358       .  S
Eu2428     O2430   2.353       .  S
O2429     Eu3337   2.350   1_545  S
O2429     Eu3340   2.353       .  S
C2431      C3583   1.490       .  S
C2432      C3573   1.489       .  S
C2433      C2571   1.489       .  S
C2434      C2561   1.488       .  S
C2435      C2538   1.489       .  S
C2436      C2551   1.488       .  S
C2437      C2518   1.484       .  S
C2438      C2528   1.477       .  S
H2439      O2440   0.966       .  S
H2441      O2442   0.966       .  S
O2442     Eu3336   2.358       .  S
O2442     Eu3340   2.358       .  S
O2443      C2454   1.288       .  A
O2443     Eu2479   2.454   1_554  S
O2444      C2455   1.291       .  A
O2444     Eu2478   2.466       .  S
O2445      C2456   1.288       .  A
O2446      C2457   1.284       .  A
O2446     Eu2451   2.433       .  S
O2447      C2457   1.289       .  A
O2447     Eu2481   2.454       .  S
O2448      C2456   1.288       .  A
O2448     Eu2480   2.455       .  S
O2449      C2455   1.290   1_554  A
O2449     Eu2451   2.459   1_554  S
O2450      C2454   1.290   1_556  A
O2450     Eu2451   2.458       .  S
Eu2451     O2461   2.354       .  S
Eu2451     O2452   2.351       .  S
O2452     Eu2481   2.347       .  S
O2452     Eu2478   2.346       .  S
O2453     Eu2480   2.344       .  S
C2456      C2588   1.505       .  S
C2457      C2601   1.493       .  S
H2458      O2459   0.966       .  S
O2459     Eu2480   2.355       .  S
H2460      O2461   0.965       .  S
O2461     Eu2479   2.349       .  S
O2461     Eu2481   2.356       .  S
O2462      C2485   1.292       .  A
O2462     Eu2478   2.466   1_554  S
O2463      C2486   1.290       .  A
O2463     Eu2479   2.452       .  S
O2464      C2487   1.290       .  A
O2464     Eu2480   2.452       .  S
O2465      C2488   1.293       .  A
O2465     Eu2481   2.470       .  S
O2466      C2489   1.292       .  A
O2466     Eu2481   2.464       .  S
O2467      C2490   1.290       .  A
O2467     Eu2480   2.454       .  S
O2468      C2491   1.287       .  A
O2469      C2492   1.285       .  A
O2469     Eu2482   2.437       .  S
O2470      C2491   1.291       .  A
O2470     Eu2480   2.464       .  S
O2471      C2492   1.289       .  A
O2471     Eu2481   2.450       .  S
O2472      C2487   1.290       .  A
O2473      C2490   1.293       .  A
O2474      C2489   1.293       .  A
O2474     Eu2479   2.467       .  S
O2475      C2488   1.292       .  A
O2475     Eu2478   2.463       .  S
O2476      C2485   1.288   1_556  A
O2476     Eu2482   2.451       .  S
O2477      C2486   1.287   1_554  A
O2477     Eu2482   2.441   1_554  S
Eu2478     O2496   2.345       .  S
Eu2479     O2483   2.345       .  S
Eu2480     O2494   2.351       .  S
Eu2480     O2484   2.346       .  S
Eu2481     O2483   2.345       .  S
Eu2481     O2496   2.355       .  S
Eu2482     O2483   2.345       .  S
Eu2482     O2496   2.351       .  S
C2487      C2511   1.469       .  S
C2488      C2521   1.485       .  S
C2489      C2531   1.477       .  S
C2490      C2501   1.480       .  S
C2491      C2581   1.498       .  S
C2492      C2611   1.489       .  S
H2493      O2494   0.966       .  S
H2495      O2496   0.966       .  S
C2497      C2498   1.413       .  A
C2497      C2502   1.408       .  A
C2497     Br2504   1.935       .  S
C2498      C2499   1.412       .  A
C2499      C2500   1.407       .  A
C2499     Br2506   1.934       .  S
C2500      C2501   1.411       .  A
C2500     Br2505   1.930       .  S
C2501      C2502   1.412       .  A
C2502     Br2503   1.932       .  S
C2507      C2508   1.413       .  A
C2507      C2512   1.406       .  A
C2507     Br2514   1.932       .  S
C2508      C2509   1.413       .  A
C2509      C2510   1.403       .  A
C2509     Br2516   1.928       .  S
C2510      C2511   1.407       .  A
C2510     Br2515   1.932       .  S
C2511      C2512   1.408       .  A
C2512     Br2513   1.930       .  S
C2517      C2518   1.412       .  A
C2517      C2522   1.410       .  A
C2517     Br2524   1.933       .  S
C2518      C2519   1.413       .  A
C2519      C2520   1.410       .  A
C2519     Br2526   1.932       .  S
C2520      C2521   1.413       .  A
C2520     Br2525   1.932       .  S
C2521      C2522   1.413       .  A
C2522     Br2523   1.931       .  S
C2527      C2528   1.410       .  A
C2527      C2532   1.407       .  A
C2527     Br2534   1.932       .  S
C2528      C2529   1.412       .  A
C2529      C2530   1.411       .  A
C2529     Br2536   1.932       .  S
C2530      C2531   1.411       .  A
C2530     Br2535   1.930       .  S
C2531      C2532   1.409       .  A
C2532     Br2533   1.930       .  S
C2537      C2538   1.413       .  A
C2537      C2542   1.409       .  A
C2537     Br2544   1.931       .  S
C2538      C2539   1.414       .  A
C2539      C2540   1.410       .  A
C2539     Br2546   1.935       .  S
C2540      C2541   1.416       .  A
C2540     Br2545   1.929       .  S
C2541      C2542   1.412       .  A
C2542     Br2543   1.922       .  S
C2547      C2548   1.415       .  A
C2547      C2552   1.412       .  A
C2547     Br2554   1.929       .  S
C2548      C2549   1.412       .  A
C2549      C2550   1.410       .  A
C2549     Br2556   1.924       .  S
C2550      C2551   1.411       .  A
C2550     Br2555   1.933       .  S
C2551      C2552   1.415       .  A
C2552     Br2553   1.932       .  S
C2557      C2558   1.416       .  A
C2557      C2562   1.409       .  A
C2557     Br2564   1.930       .  S
C2558      C2559   1.415       .  A
C2559      C2560   1.411       .  A
C2559     Br2566   1.930       .  S
C2560      C2561   1.412       .  A
C2560     Br2565   1.933       .  S
C2561      C2562   1.414       .  A
C2562     Br2563   1.936       .  S
C2567      C2568   1.414       .  A
C2567      C2572   1.411       .  A
C2567     Br2574   1.932       .  S
C2568      C2569   1.412       .  A
C2569      C2570   1.410       .  A
C2569     Br2576   1.925       .  S
C2570      C2571   1.414       .  A
C2570     Br2575   1.933       .  S
C2571      C2572   1.415       .  A
C2572     Br2573   1.933       .  S
C2577      C2578   1.426       .  A
C2577      C2582   1.406       .  A
C2577     Br2584   1.942       .  S
C2578      C2579   1.428       .  A
C2579      C2580   1.412       .  A
C2579     Br2586   1.943       .  S
C2580      C2581   1.418       .  A
C2580     Br2585   1.941       .  S
C2581      C2582   1.414       .  A
C2582     Br2583   1.939       .  S
C2587      C2588   1.422       .  A
C2587      C2592   1.408       .  A
C2587     Br2594   1.941       .  S
C2588      C2589   1.421       .  A
C2589      C2590   1.407       .  A
C2589     Br2596   1.939       .  S
C2590      C2591   1.422       .  A
C2590     Br2595   1.940       .  S
C2591      C2592   1.422       .  A
C2592     Br2593   1.940       .  S
C2597      C2598   1.422       .  A
C2597      C2602   1.401       .  A
C2597     Br2604   1.942       .  S
C2598      C2599   1.425       .  A
C2599      C2600   1.411       .  A
C2599     Br2606   1.945       .  S
C2600      C2601   1.423       .  A
C2600     Br2605   1.944       .  S
C2601      C2602   1.414       .  A
C2602     Br2603   1.940       .  S
C2607      C2608   1.426       .  A
C2607      C2612   1.409       .  A
C2607     Br2614   1.943       .  S
C2608      C2609   1.423       .  A
C2609      C2610   1.400       .  A
C2609     Br2616   1.940       .  S
C2610      C2611   1.412       .  A
C2610     Br2615   1.938       .  S
C2611      C2612   1.419       .  A
C2612     Br2613   1.942       .  S
C2617      C2618   1.421       .  A
C2617      C2622   1.414       .  A
C2617     Br2624   1.934       .  S
C2619      C2620   1.404   1_556  A
C2619     Br2626   1.937       .  S
C2620     Br2625   1.937   1_554  S
C2621      C2622   1.416       .  A
C2622     Br2623   1.937       .  S
C2627      C2632   1.412       .  A
C2627     Br2634   1.938       .  S
C2628      C2629   1.412       .  A
C2629      C2630   1.406       .  A
C2629     Br2636   1.943       .  S
C2630      C2631   1.426       .  A
C2630     Br2635   1.940       .  S
C2632     Br2633   1.938       .  S
C2637      C2638   1.424       .  A
C2637      C2642   1.413       .  A
C2637     Br2644   1.941       .  S
C2639      C2640   1.409       .  A
C2639     Br2646   1.944       .  S
C2640     Br2645   1.941       .  S
C2641      C2642   1.418       .  A
C2642     Br2643   1.935       .  S
C2647      C2648   1.428       .  A
C2647      C2652   1.410       .  A
C2647     Br2654   1.943       .  S
C2649      C2650   1.410       .  A
C2649     Br2656   1.942       .  S
C2650     Br2655   1.933       .  S
C2651      C2652   1.418       .  A
C2652     Br2653   1.942       .  S
C2657      C3570   1.411       .  A
C2657      C2662   1.410       .  A
C2657     Br2664   1.922       .  S
C2658      C3569   1.411       .  A
C2658      C2659   1.417   1_565  A
C2659      C2660   1.410       .  A
C2659     Br2666   1.932       .  S
C2660      C2661   1.415   1_545  A
C2660     Br2665   1.935       .  S
C2661      C3344   1.489       .  S
C2661      C3574   1.415       .  A
C2662      C3573   1.415       .  A
C2662     Br2663   1.935       .  S
C2667      C2668   1.415       .  A
C2667      C2672   1.413       .  A
C2667     Br2674   1.917       .  S
C2668      C3581   1.420   1_545  A
C2669      C3580   1.420       .  A
C2669      C2670   1.412       .  A
C2669     Br2676   1.931       .  S
C2670      C3583   1.413       .  A
C2670     Br2675   1.936       .  S
C2671      C3343   1.490   1_565  S
C2671      C3582   1.413       .  A
C2671      C2672   1.411   1_565  A
C2672     Br2673   1.934       .  S
C2677      C3590   1.409       .  A
C2677      C2682   1.412       .  A
C2677     Br2684   1.927       .  S
C2678      C3589   1.409       .  A
C2678      C2679   1.414   1_565  A
C2679      C2680   1.410       .  A
C2679     Br2686   1.928       .  S
C2680      C2681   1.414       .  A
C2680     Br2685   1.931       .  S
C2681      C3313   1.489       .  S
C2681      C3594   1.412   1_545  A
C2682      C3593   1.412       .  A
C2682     Br2683   1.929       .  S
C2687      C2688   1.409       .  A
C2687      C2692   1.406       .  A
C2687     Br2694   1.915       .  S
C2688      C3601   1.410   1_545  A
C2689      C3600   1.410       .  A
C2689      C2690   1.409       .  A
C2689     Br2696   1.927       .  S
C2690      C3603   1.408       .  A
C2690     Br2695   1.928       .  S
C2691      C3312   1.473       .  S
C2691      C3602   1.408       .  A
C2691      C2692   1.406   1_565  A
C2692     Br2693   1.928       .  S
C2697      C2698   1.408       .  A
C2697      C2702   1.407       .  A
C2697     Br2704   1.922       .  S
C2699      C2700   1.409       .  A
C2699     Br2706   1.931       .  S
C2700     Br2705   1.924       .  S
C2701      C2702   1.409       .  A
C2702     Br2703   1.930       .  S
C2707      C2708   1.409       .  A
C2707      C2712   1.409       .  A
C2707     Br2714   1.927       .  S
C2709      C2710   1.406       .  A
C2709     Br2716   1.931       .  S
C2710     Br2715   1.926       .  S
C2711      C2712   1.409       .  A
C2712     Br2713   1.930       .  S
C2717      C2718   1.413       .  A
C2717      C2722   1.411       .  A
C2717     Br2724   1.934       .  S
C2719      C2720   1.409       .  A
C2719     Br2726   1.932       .  S
C2720     Br2725   1.934       .  S
C2721      C2722   1.420       .  A
C2722     Br2723   1.933       .  S
C2727      C2728   1.410       .  A
C2727      C2732   1.411       .  A
C2727     Br2734   1.928       .  S
C2729      C2730   1.407       .  A
C2729     Br2736   1.921       .  S
C2730     Br2735   1.928       .  S
C2731      C2732   1.410       .  A
C2732     Br2733   1.927       .  S
O2737      C2748   1.296       .  A
O2737     Eu2773   2.490       .  S
O2738      C2749   1.294       .  A
O2738     Eu2772   2.478       .  S
O2739      C2750   1.293   1_556  A
O2739     Eu2745   2.481       .  S
O2740      C2751   1.293       .  A
O2741      C2751   1.287       .  A
O2741     Eu2775   2.449       .  S
O2742      C2750   1.284       .  A
O2742     Eu2774   2.435       .  S
O2743      C2749   1.289       .  A
O2743     Eu3201   2.446       .  S
O2744      C2748   1.289       .  A
O2744     Eu2745   2.454   1_554  S
Eu2745     O3199   2.446       .  S
Eu2745     O2747   2.347   1_556  S
Eu2745     O3209   2.355       .  S
O2746     Eu3231   2.346       .  S
O2747     Eu2773   2.352       .  S
O2747     Eu2774   2.357       .  S
C2748      C3184   1.482       .  S
C2749      C3154   1.474       .  S
C2750      C3104   1.508       .  S
C2751      C3087   1.504       .  S
H2752      O2753   0.966       .  S
O2753     Eu3201   2.355       .  S
O2753     Eu3230   2.353       .  S
O2753     Eu2772   2.359       .  S
H2754      O2755   0.966       .  S
O2755     Eu2775   2.370   1_554  S
O2756      C2779   1.293       .  A
O2757      C2780   1.291       .  A
O2758      C2781   1.301       .  A
O2758     Eu3230   2.515       .  S
O2759      C2782   1.298       .  A
O2759     Eu3231   2.497       .  S
O2760      C2783   1.292       .  A
O2760     Eu2775   2.469   1_554  S
O2761      C2784   1.299       .  A
O2761     Eu2774   2.501       .  S
O2762      C2785   1.292       .  A
O2762     Eu2776   2.474       .  S
O2763      C2786   1.294       .  A
O2764      C2785   1.285   1_556  A
O2765      C2786   1.286       .  A
O2766      C2781   1.289       .  A
O2766     Eu2772   2.453       .  S
O2767      C2784   1.289       .  A
O2767     Eu2773   2.448       .  S
O2768      C2783   1.294       .  A
O2769      C2782   1.288       .  A
O2770      C2779   1.290       .  A
O2770     Eu3232   2.458       .  S
O2771      C2780   1.293       .  A
O2771     Eu2776   2.473       .  S
Eu2774     O3214   2.515   1_554  S
Eu2774     O3209   2.353   1_554  S
Eu2775     O3215   2.497       .  S
Eu2775     O3202   2.346       .  S
Eu2776     O3226   2.458   1_554  S
Eu2776     O2788   2.349       .  S
Eu2776     O3234   2.363   1_554  S
O2778     Eu3232   2.363       .  S
C2779      C3167   1.475       .  S
C2780      C3177   1.499       .  S
C2781      C3124   1.506       .  S
C2782      C3114   1.497       .  S
C2783      C3144   1.482       .  S
C2784      C3134   1.492       .  S
C2785      C3094   1.508   1_554  S
C2786      C3077   1.504       .  S
H2787      O2788   0.965       .  S
H2789      O2790   0.966       .  S
O2791      C2802   1.291       .  A
O2791     Eu2827   2.460       .  S
O2792      C2803   1.291       .  A
O2792     Eu2826   2.460       .  S
O2793      C2804   1.292       .  A
O2793     Eu2799   2.466       .  S
O2794      C2805   1.290       .  A
O2795      C2805   1.296       .  A
O2795     Eu2829   2.484       .  S
O2796      C2804   1.292       .  A
O2796     Eu2828   2.464       .  S
O2797      C2803   1.293       .  A
O2797     Eu2799   2.473       .  S
O2798      C2802   1.293       .  A
O2798     Eu2799   2.469       .  S
Eu2799     O2801   2.351       .  S
Eu2799     O2807   2.345       .  S
O2800     Eu2829   2.356       .  S
O2801     Eu2827   2.354       .  S
O2801     Eu2828   2.347       .  S
C2802      C3187   1.476       .  S
C2803      C3157   1.477       .  S
C2804      C3014   1.492       .  S
C2805      C2997   1.493       .  S
H2806      O2807   0.966       .  S
O2807     Eu2828   2.354       .  S
O2807     Eu2826   2.354       .  S
H2808      O2809   0.966       .  S
O2809     Eu2829   2.350       .  S
O2810      C2833   1.289       .  A
O2810     Eu2826   2.452       .  S
O2811      C2834   1.293       .  A
O2811     Eu2827   2.469       .  S
O2812      C2835   1.285       .  A
O2812     Eu2828   2.444       .  S
O2813      C2836   1.285       .  A
O2813     Eu2829   2.437       .  S
O2814      C2837   1.287       .  A
O2814     Eu2829   2.453       .  S
O2815      C2838   1.288       .  A
O2815     Eu2828   2.451       .  S
O2816      C2839   1.292       .  A
O2816     Eu2830   2.467       .  S
O2817      C2840   1.291       .  A
O2818      C2839   1.294       .  A
O2818     Eu2828   2.475       .  S
O2819      C2840   1.297       .  A
O2819     Eu2829   2.487       .  S
O2820      C2835   1.286       .  A
O2820     Eu2826   2.448       .  S
O2821      C2838   1.288       .  A
O2821     Eu2827   2.457       .  S
O2822      C2837   1.288       .  A
O2823      C2836   1.288       .  A
O2824      C2833   1.291       .  A
O2824     Eu2830   2.465       .  S
O2825      C2834   1.289       .  A
O2825     Eu2830   2.447       .  S
Eu2826     O2832   2.355       .  S
Eu2827     O2842   2.352       .  S
Eu2828     O2842   2.353       .  S
Eu2828     O2832   2.354       .  S
Eu2829     O2831   2.350       .  S
Eu2829     O2844   2.361       .  S
Eu2830     O2842   2.351       .  S
Eu2830     O2832   2.350       .  S
C2833      C3164   1.472       .  S
C2834      C3174   1.487       .  S
C2835      C3054   1.502       .  S
C2836      C3064   1.501       .  S
C2837      C3034   1.508       .  S
C2838      C3047   1.504       .  S
C2839      C3024   1.491       .  S
C2840      C3004   1.495       .  S
H2841      O2842   0.965       .  S
H2843      O2844   0.966       .  S
O2845      C2856   1.290       .  A
O2845     Eu2881   2.456       .  S
O2846      C2857   1.290       .  A
O2846     Eu2880   2.456       .  S
O2847      C2858   1.289       .  A
O2847     Eu2853   2.448   1_565  S
O2848      C2859   1.290       .  A
O2849      C2859   1.291       .  A
O2849     Eu2883   2.455       .  S
O2850      C2858   1.292       .  A
O2850     Eu2882   2.461       .  S
O2851      C2857   1.295       .  A
O2851     Eu2853   2.486       .  S
O2852      C2856   1.291       .  A
O2852     Eu2853   2.459   1_565  S
Eu2853     O2855   2.360   1_545  S
Eu2853     O2861   2.350   1_545  S
O2854     Eu2883   2.354       .  S
O2855     Eu2881   2.354       .  S
O2855     Eu2882   2.350       .  S
C2858      C2964   1.476       .  S
C2859      C2954   1.478       .  S
H2860      O2861   0.966       .  S
O2861     Eu2882   2.361       .  S
O2861     Eu2880   2.354   1_565  S
H2862      O2863   0.965       .  S
O2863     Eu2883   2.353       .  S
O2864      C2887   1.290       .  A
O2864     Eu2880   2.454       .  S
O2865      C2888   1.291       .  A
O2865     Eu2881   2.457       .  S
O2866      C2889   1.292       .  A
O2866     Eu2882   2.465       .  S
O2867      C2890   1.293       .  A
O2867     Eu2883   2.471       .  S
O2868      C2891   1.292       .  A
O2868     Eu2883   2.468       .  S
O2869      C2892   1.295       .  A
O2869     Eu2882   2.482       .  S
O2870      C2893   1.292       .  A
O2870     Eu2884   2.463   1_565  S
O2871      C2894   1.291       .  A
O2872      C2893   1.292       .  A
O2872     Eu2882   2.461       .  S
O2873      C2894   1.291       .  A
O2873     Eu2883   2.457       .  S
O2874      C2889   1.292       .  A
O2874     Eu2880   2.464   1_565  S
O2875      C2892   1.290       .  A
O2875     Eu2881   2.453       .  S
O2876      C2891   1.290       .  A
O2877      C2890   1.290       .  A
O2878      C2887   1.293   1_565  A
O2878     Eu2884   2.472   1_565  S
O2879      C2888   1.292   1_545  A
O2879     Eu2884   2.464       .  S
Eu2880     O2886   2.351   1_545  S
Eu2881     O2896   2.351       .  S
Eu2882     O2896   2.353       .  S
Eu2882     O2886   2.355       .  S
Eu2883     O2885   2.352       .  S
Eu2883     O2898   2.358       .  S
Eu2884     O2896   2.358   1_545  S
Eu2884     O2886   2.353   1_545  S
C2889      C3027   1.489       .  S
C2890      C3017   1.488       .  S
C2891      C2994   1.489       .  S
C2892      C3007   1.488       .  S
C2893      C2974   1.484       .  S
C2894      C2984   1.477       .  S
H2895      O2896   0.966       .  S
H2897      O2898   0.966       .  S
O2899      C2910   1.288       .  A
O2899     Eu2935   2.454       .  S
O2900      C2911   1.291       .  A
O2900     Eu2934   2.466       .  S
O2901      C2912   1.288       .  A
O2901     Eu3363   2.452   1_554  S
O2902      C2913   1.284       .  A
O2902     Eu2907   2.433       .  S
O2903      C2913   1.289       .  A
O2903     Eu2937   2.455       .  S
O2904      C2912   1.288       .  A
O2904     Eu2936   2.455       .  S
O2905      C2911   1.290       .  A
O2905     Eu2907   2.459       .  S
O2906      C2910   1.290       .  A
O2906     Eu2907   2.457       .  S
Eu2907     O3357   2.452       .  S
Eu2907     O2917   2.354       .  S
Eu2907     O3365   2.345       .  S
Eu2907     O2908   2.351       .  S
Eu2907     O3371   2.345       .  S
O2908     Eu2937   2.347       .  S
O2908     Eu2934   2.346       .  S
O2909     Eu3363   2.345   1_554  S
O2909     Eu3391   2.347   1_554  S
O2909     Eu2936   2.344       .  S
C2910      C3563   1.500       .  S
C2911      C3553   1.502       .  S
C2912      C3044   1.505       .  S
C2913      C3057   1.493       .  S
H2914      O2915   0.966       .  S
O2915     Eu3363   2.345   1_554  S
O2915     Eu2936   2.355       .  S
O2915     Eu3390   2.352   1_554  S
H2916      O2917   0.965       .  S
O2917     Eu2935   2.349       .  S
O2917     Eu2937   2.356       .  S
O2918      C2941   1.292       .  A
O2918     Eu2934   2.466       .  S
O2919      C2942   1.290       .  A
O2919     Eu2935   2.452       .  S
O2920      C2943   1.290       .  A
O2920     Eu2936   2.452       .  S
O2921      C2944   1.293       .  A
O2921     Eu2937   2.470       .  S
O2922      C2945   1.292       .  A
O2922     Eu2937   2.464       .  S
O2923      C2946   1.290       .  A
O2923     Eu2936   2.454       .  S
O2924      C2947   1.287       .  A
O2924     Eu3394   2.445   1_554  S
O2925      C2948   1.285       .  A
O2925     Eu2938   2.437       .  S
O2926      C2947   1.291       .  A
O2926     Eu2936   2.464       .  S
O2927      C2948   1.289       .  A
O2927     Eu2937   2.450       .  S
O2928      C2943   1.290       .  A
O2928     Eu3390   2.446   1_554  S
O2929      C2946   1.293       .  A
O2929     Eu3391   2.470   1_554  S
O2930      C2945   1.293       .  A
O2930     Eu2935   2.467       .  S
O2931      C2944   1.292       .  A
O2931     Eu2934   2.464       .  S
O2932      C2941   1.288       .  A
O2932     Eu2938   2.451       .  S
O2933      C2942   1.287       .  A
O2933     Eu2938   2.441       .  S
Eu2934     O3384   2.446       .  S
Eu2934     O3371   2.352       .  S
Eu2934     O2952   2.345       .  S
Eu2934     O3396   2.352       .  S
Eu2935     O3385   2.470       .  S
Eu2935     O3365   2.347       .  S
Eu2935     O2939   2.345       .  S
Eu2935     O3406   2.350       .  S
Eu2936     O2950   2.352       .  S
Eu2936     O2940   2.346       .  S
Eu2937     O2939   2.345       .  S
Eu2937     O2952   2.355       .  S
Eu2938     O3380   2.446       .  S
Eu2938     O2939   2.345       .  S
Eu2938     O3406   2.351       .  S
Eu2938     O2952   2.351       .  S
Eu2938     O3396   2.341       .  S
O2940     Eu3390   2.352   1_554  S
O2940     Eu3394   2.341   1_554  S
C2941      C3530   1.496       .  S
C2942      C3540   1.489       .  S
C2943      C2967   1.469       .  S
C2944      C2977   1.485       .  S
C2945      C2987   1.477       .  S
C2946      C2957   1.480       .  S
C2947      C3037   1.497       .  S
C2948      C3067   1.489       .  S
H2949      O2950   0.966       .  S
O2950     Eu3391   2.350   1_554  S
O2950     Eu3394   2.351   1_554  S
H2951      O2952   0.966       .  S
C2953      C2954   1.413       .  A
C2953      C2958   1.408       .  A
C2953     Br2960   1.935       .  S
C2954      C2955   1.412       .  A
C2955      C2956   1.407       .  A
C2955     Br2962   1.934       .  S
C2956      C2957   1.411       .  A
C2956     Br2961   1.930       .  S
C2957      C2958   1.412       .  A
C2958     Br2959   1.932       .  S
C2963      C2964   1.413       .  A
C2963      C2968   1.406       .  A
C2963     Br2970   1.932       .  S
C2964      C2965   1.413       .  A
C2965      C2966   1.403       .  A
C2965     Br2972   1.928       .  S
C2966      C2967   1.407       .  A
C2966     Br2971   1.932       .  S
C2967      C2968   1.408       .  A
C2968     Br2969   1.930       .  S
C2973      C2974   1.412       .  A
C2973      C2978   1.410       .  A
C2973     Br2980   1.933       .  S
C2974      C2975   1.413       .  A
C2975      C2976   1.410       .  A
C2975     Br2982   1.932       .  S
C2976      C2977   1.413       .  A
C2976     Br2981   1.932       .  S
C2977      C2978   1.413       .  A
C2978     Br2979   1.931       .  S
C2983      C2984   1.410       .  A
C2983      C2988   1.407       .  A
C2983     Br2990   1.932       .  S
C2984      C2985   1.412       .  A
C2985      C2986   1.411       .  A
C2985     Br2992   1.932       .  S
C2986      C2987   1.411       .  A
C2986     Br2991   1.930       .  S
C2987      C2988   1.409       .  A
C2988     Br2989   1.930       .  S
C2993      C2994   1.413       .  A
C2993      C2998   1.409       .  A
C2993     Br3000   1.931       .  S
C2994      C2995   1.414       .  A
C2995      C2996   1.410       .  A
C2995     Br3002   1.935       .  S
C2996      C2997   1.416       .  A
C2996     Br3001   1.929       .  S
C2997      C2998   1.412       .  A
C2998     Br2999   1.922       .  S
C3003      C3004   1.414       .  A
C3003      C3008   1.412       .  A
C3003     Br3010   1.929       .  S
C3004      C3005   1.412       .  A
C3005      C3006   1.410       .  A
C3005     Br3012   1.924       .  S
C3006      C3007   1.411       .  A
C3006     Br3011   1.933       .  S
C3007      C3008   1.415       .  A
C3008     Br3009   1.932       .  S
C3013      C3014   1.416       .  A
C3013      C3018   1.409       .  A
C3013     Br3020   1.930       .  S
C3014      C3015   1.415       .  A
C3015      C3016   1.411       .  A
C3015     Br3022   1.930       .  S
C3016      C3017   1.412       .  A
C3016     Br3021   1.933       .  S
C3017      C3018   1.414       .  A
C3018     Br3019   1.936       .  S
C3023      C3024   1.414       .  A
C3023      C3028   1.411       .  A
C3023     Br3030   1.932       .  S
C3024      C3025   1.412       .  A
C3025      C3026   1.410       .  A
C3025     Br3032   1.925       .  S
C3026      C3027   1.414       .  A
C3026     Br3031   1.933       .  S
C3027      C3028   1.415       .  A
C3028     Br3029   1.933       .  S
C3033      C3034   1.426       .  A
C3033      C3038   1.406       .  A
C3033     Br3040   1.942       .  S
C3034      C3035   1.428       .  A
C3035      C3036   1.412       .  A
C3035     Br3042   1.943       .  S
C3036      C3037   1.418       .  A
C3036     Br3041   1.941       .  S
C3037      C3038   1.414       .  A
C3038     Br3039   1.939       .  S
C3043      C3044   1.422       .  A
C3043      C3048   1.408       .  A
C3043     Br3050   1.941       .  S
C3044      C3045   1.421       .  A
C3045      C3046   1.407       .  A
C3045     Br3052   1.939       .  S
C3046      C3047   1.422       .  A
C3046     Br3051   1.940       .  S
C3047      C3048   1.422       .  A
C3048     Br3049   1.940       .  S
C3053      C3054   1.421       .  A
C3053      C3058   1.401       .  A
C3053     Br3060   1.942       .  S
C3054      C3055   1.425       .  A
C3055      C3056   1.411       .  A
C3055     Br3062   1.945       .  S
C3056      C3057   1.423       .  A
C3056     Br3061   1.944       .  S
C3057      C3058   1.414       .  A
C3058     Br3059   1.940       .  S
C3063      C3064   1.426       .  A
C3063      C3068   1.409       .  A
C3063     Br3070   1.943       .  S
C3064      C3065   1.423       .  A
C3065      C3066   1.400       .  A
C3065     Br3072   1.940       .  S
C3066      C3067   1.412       .  A
C3066     Br3071   1.938       .  S
C3067      C3068   1.419       .  A
C3068     Br3069   1.942       .  S
C3073      C3074   1.421       .  A
C3073      C3078   1.414       .  A
C3073     Br3080   1.934       .  S
C3074      C3397   1.495       .  S
C3074      C3531   1.414   1_554  A
C3075      C3530   1.414       .  A
C3075      C3076   1.404       .  A
C3075     Br3082   1.937       .  S
C3076      C3533   1.418       .  A
C3076     Br3081   1.937       .  S
C3077      C3532   1.418       .  A
C3077      C3078   1.416       .  A
C3078     Br3079   1.937       .  S
C3083      C3540   1.416       .  A
C3083      C3088   1.412       .  A
C3083     Br3090   1.938       .  S
C3084      C3398   1.489       .  S
C3084      C3539   1.416       .  A
C3084      C3085   1.412   1_556  A
C3085      C3086   1.406       .  A
C3085     Br3092   1.943       .  S
C3086      C3087   1.426   1_554  A
C3086     Br3091   1.940       .  S
C3087      C3544   1.423       .  A
C3088      C3543   1.423       .  A
C3088     Br3089   1.938       .  S
C3093      C3094   1.424       .  A
C3093      C3098   1.413       .  A
C3093     Br3100   1.941       .  S
C3094      C3551   1.427   1_556  A
C3095      C3550   1.427       .  A
C3095      C3096   1.409       .  A
C3095     Br3102   1.944       .  S
C3096      C3553   1.417       .  A
C3096     Br3101   1.941       .  S
C3097      C3367   1.502       .  S
C3097      C3552   1.417   1_556  A
C3097      C3098   1.418       .  A
C3098     Br3099   1.935       .  S
C3103      C3104   1.428   1_556  A
C3103      C3108   1.410       .  A
C3103     Br3110   1.943   1_556  S
C3104      C3561   1.423       .  A
C3105      C3560   1.423       .  A
C3105      C3106   1.410       .  A
C3105     Br3112   1.942       .  S
C3106      C3563   1.417       .  A
C3106     Br3111   1.933       .  S
C3107      C3366   1.500       .  S
C3107      C3562   1.417       .  A
C3107      C3108   1.418   1_554  A
C3108     Br3109   1.942       .  S
C3113      C3118   1.410       .  A
C3113     Br3120   1.922       .  S
C3114      C3115   1.417       .  A
C3115      C3116   1.410       .  A
C3115     Br3122   1.932       .  S
C3116      C3117   1.415       .  A
C3116     Br3121   1.935       .  S
C3118     Br3119   1.935       .  S
C3123      C3124   1.415       .  A
C3123      C3128   1.413       .  A
C3123     Br3130   1.917       .  S
C3125      C3126   1.412       .  A
C3125     Br3132   1.931       .  S
C3126     Br3131   1.936       .  S
C3127      C3128   1.411       .  A
C3128     Br3129   1.934       .  S
C3133      C3138   1.412       .  A
C3133     Br3140   1.927       .  S
C3134      C3135   1.414       .  A
C3135      C3136   1.410       .  A
C3135     Br3142   1.928       .  S
C3136      C3137   1.414       .  A
C3136     Br3141   1.931       .  S
C3138     Br3139   1.929       .  S
C3143      C3144   1.409       .  A
C3143      C3148   1.406       .  A
C3143     Br3150   1.915       .  S
C3145      C3146   1.409       .  A
C3145     Br3152   1.927       .  S
C3146     Br3151   1.928       .  S
C3147      C3148   1.406       .  A
C3148     Br3149   1.929       .  S
C3153      C3154   1.408       .  A
C3153      C3158   1.407       .  A
C3153     Br3160   1.922       .  S
C3155      C3156   1.409       .  A
C3155     Br3162   1.931       .  S
C3156     Br3161   1.924       .  S
C3157      C3158   1.409       .  A
C3158     Br3159   1.930       .  S
C3163      C3164   1.409       .  A
C3163      C3168   1.409       .  A
C3163     Br3170   1.927       .  S
C3165      C3166   1.406       .  A
C3165     Br3172   1.931       .  S
C3166     Br3171   1.926       .  S
C3167      C3168   1.409       .  A
C3168     Br3169   1.929       .  S
C3173      C3174   1.413       .  A
C3173      C3178   1.411       .  A
C3173     Br3180   1.934       .  S
C3175      C3176   1.409       .  A
C3175     Br3182   1.932       .  S
C3176     Br3181   1.934       .  S
C3177      C3178   1.420       .  A
C3178     Br3179   1.933       .  S
C3183      C3184   1.410       .  A
C3183      C3188   1.411       .  A
C3183     Br3190   1.928       .  S
C3185      C3186   1.407       .  A
C3185     Br3192   1.921       .  S
C3186     Br3191   1.928       .  S
C3187      C3188   1.410       .  A
C3188     Br3189   1.927       .  S
O3193      C3204   1.296       .  A
O3193     Eu3229   2.490       .  S
O3194      C3205   1.294       .  A
O3194     Eu3228   2.478       .  S
O3195      C3206   1.293       .  A
O3195     Eu3201   2.481       .  S
O3196      C3207   1.293       .  A
O3197      C3207   1.287       .  A
O3197     Eu3231   2.449       .  S
O3198      C3206   1.284       .  A
O3198     Eu3230   2.435       .  S
O3199      C3205   1.289       .  A
O3200      C3204   1.289       .  A
O3200     Eu3201   2.454       .  S
Eu3201     O3203   2.347       .  S
O3203     Eu3229   2.352       .  S
O3203     Eu3230   2.357       .  S
C3204      C3640   1.482       .  S
C3205      C3610   1.474       .  S
C3206      C3560   1.508       .  S
C3207      C3543   1.504       .  S
H3208      O3209   0.966       .  S
O3209     Eu3228   2.359       .  S
H3210      O3211   0.966       .  S
O3211     Eu3231   2.370       .  S
O3212      C3235   1.293       .  A
O3213      C3236   1.291       .  A
O3214      C3237   1.301       .  A
O3215      C3238   1.298       .  A
O3216      C3239   1.292       .  A
O3216     Eu3231   2.469       .  S
O3217      C3240   1.299       .  A
O3217     Eu3230   2.501       .  S
O3218      C3241   1.292       .  A
O3218     Eu3232   2.474       .  S
O3219      C3242   1.294       .  A
O3220      C3241   1.285       .  A
O3221      C3242   1.286       .  A
O3222      C3237   1.289       .  A
O3222     Eu3228   2.453       .  S
O3223      C3240   1.289       .  A
O3223     Eu3229   2.448       .  S
O3224      C3239   1.294       .  A
O3225      C3238   1.288       .  A
O3226      C3235   1.290       .  A
O3227      C3236   1.293       .  A
O3227     Eu3232   2.473       .  S
Eu3232     O3244   2.349       .  S
C3235      C3623   1.475       .  S
C3236      C3633   1.499       .  S
C3237      C3580   1.506       .  S
C3238      C3570   1.497       .  S
C3239      C3600   1.482       .  S
C3240      C3590   1.492       .  S
C3241      C3550   1.508       .  S
C3242      C3533   1.504       .  S
H3243      O3244   0.965       .  S
H3245      O3246   0.966       .  S
O3247      C3258   1.291       .  A
O3247     Eu3283   2.461       .  S
O3248      C3259   1.291       .  A
O3248     Eu3282   2.461       .  S
O3249      C3260   1.292       .  A
O3249     Eu3255   2.466       .  S
O3250      C3261   1.290       .  A
O3251      C3261   1.296       .  A
O3251     Eu3285   2.484       .  S
O3252      C3260   1.292       .  A
O3252     Eu3284   2.464       .  S
O3253      C3259   1.293       .  A
O3253     Eu3255   2.473       .  S
O3254      C3258   1.293       .  A
O3254     Eu3255   2.469       .  S
Eu3255     O3257   2.351       .  S
Eu3255     O3263   2.345       .  S
O3256     Eu3285   2.356       .  S
O3257     Eu3283   2.354       .  S
O3257     Eu3284   2.347       .  S
C3258      C3643   1.476       .  S
C3259      C3613   1.477       .  S
C3260      C3470   1.492       .  S
C3261      C3453   1.493       .  S
H3262      O3263   0.966       .  S
O3263     Eu3284   2.354       .  S
O3263     Eu3282   2.354       .  S
H3264      O3265   0.966       .  S
O3265     Eu3285   2.350       .  S
O3266      C3289   1.289       .  A
O3266     Eu3282   2.452       .  S
O3267      C3290   1.293       .  A
O3267     Eu3283   2.469       .  S
O3268      C3291   1.285       .  A
O3268     Eu3284   2.444       .  S
O3269      C3292   1.285       .  A
O3269     Eu3285   2.437       .  S
O3270      C3293   1.287       .  A
O3270     Eu3285   2.453       .  S
O3271      C3294   1.288       .  A
O3271     Eu3284   2.451       .  S
O3272      C3295   1.292       .  A
O3272     Eu3286   2.467       .  S
O3273      C3296   1.291       .  A
O3274      C3295   1.294       .  A
O3274     Eu3284   2.475       .  S
O3275      C3296   1.297       .  A
O3275     Eu3285   2.487       .  S
O3276      C3291   1.287       .  A
O3276     Eu3282   2.448       .  S
O3277      C3294   1.288       .  A
O3277     Eu3283   2.457       .  S
O3278      C3293   1.288       .  A
O3279      C3292   1.288       .  A
O3280      C3289   1.292       .  A
O3280     Eu3286   2.465       .  S
O3281      C3290   1.289       .  A
O3281     Eu3286   2.447       .  S
Eu3282     O3288   2.355       .  S
Eu3283     O3298   2.352       .  S
Eu3284     O3298   2.353       .  S
Eu3284     O3288   2.354       .  S
Eu3285     O3287   2.350       .  S
Eu3285     O3300   2.361       .  S
Eu3286     O3298   2.352       .  S
Eu3286     O3288   2.350       .  S
C3289      C3620   1.472       .  S
C3290      C3630   1.487       .  S
C3291      C3510   1.502       .  S
C3292      C3520   1.501       .  S
C3293      C3490   1.508       .  S
C3294      C3503   1.504       .  S
C3295      C3480   1.491       .  S
C3296      C3460   1.495       .  S
H3297      O3298   0.965       .  S
H3299      O3300   0.966       .  S
O3301      C3312   1.290       .  A
O3301     Eu3337   2.456       .  S
O3302      C3313   1.290       .  A
O3302     Eu3336   2.456       .  S
O3303      C3314   1.289       .  A
O3303     Eu3309   2.448   1_565  S
O3304      C3315   1.290       .  A
O3305      C3315   1.291       .  A
O3305     Eu3339   2.455       .  S
O3306      C3314   1.292       .  A
O3306     Eu3338   2.461       .  S
O3307      C3313   1.295       .  A
O3307     Eu3309   2.486       .  S
O3308      C3312   1.291       .  A
O3308     Eu3309   2.459   1_565  S
Eu3309     O3311   2.360   1_545  S
Eu3309     O3317   2.350   1_545  S
O3310     Eu3339   2.354       .  S
O3311     Eu3337   2.354       .  S
O3311     Eu3338   2.350       .  S
C3314      C3420   1.476       .  S
C3315      C3410   1.478       .  S
H3316      O3317   0.966       .  S
O3317     Eu3338   2.361       .  S
O3317     Eu3336   2.354   1_565  S
H3318      O3319   0.965       .  S
O3319     Eu3339   2.353       .  S
O3320      C3343   1.290       .  A
O3320     Eu3336   2.454       .  S
O3321      C3344   1.291       .  A
O3321     Eu3337   2.456       .  S
O3322      C3345   1.292       .  A
O3322     Eu3338   2.465       .  S
O3323      C3346   1.293       .  A
O3323     Eu3339   2.471       .  S
O3324      C3347   1.292       .  A
O3324     Eu3339   2.468       .  S
O3325      C3348   1.295       .  A
O3325     Eu3338   2.482       .  S
O3326      C3349   1.292       .  A
O3326     Eu3340   2.463   1_565  S
O3327      C3350   1.291       .  A
O3328      C3349   1.292       .  A
O3328     Eu3338   2.461       .  S
O3329      C3350   1.291       .  A
O3329     Eu3339   2.457       .  S
O3330      C3345   1.292       .  A
O3330     Eu3336   2.464   1_565  S
O3331      C3348   1.290       .  A
O3331     Eu3337   2.453       .  S
O3332      C3347   1.290       .  A
O3333      C3346   1.290       .  A
O3334      C3343   1.293   1_565  A
O3334     Eu3340   2.472   1_565  S
O3335      C3344   1.292   1_545  A
O3335     Eu3340   2.464       .  S
Eu3336     O3342   2.351   1_545  S
Eu3337     O3352   2.351       .  S
Eu3338     O3352   2.353       .  S
Eu3338     O3342   2.355       .  S
Eu3339     O3341   2.352       .  S
Eu3339     O3354   2.358       .  S
Eu3340     O3352   2.358   1_545  S
Eu3340     O3342   2.353   1_545  S
C3345      C3483   1.489       .  S
C3346      C3473   1.488       .  S
C3347      C3450   1.489       .  S
C3348      C3463   1.488       .  S
C3349      C3430   1.484       .  S
C3350      C3440   1.477       .  S
H3351      O3352   0.966       .  S
H3353      O3354   0.966       .  S
O3355      C3366   1.288       .  A
O3355     Eu3391   2.454   1_554  S
O3356      C3367   1.291       .  A
O3356     Eu3390   2.466       .  S
O3357      C3368   1.288       .  A
O3358      C3369   1.284       .  A
O3358     Eu3363   2.433       .  S
O3359      C3369   1.289       .  A
O3359     Eu3393   2.454       .  S
O3360      C3368   1.288       .  A
O3360     Eu3392   2.455       .  S
O3361      C3367   1.290   1_554  A
O3361     Eu3363   2.459   1_554  S
O3362      C3366   1.290   1_556  A
O3362     Eu3363   2.458       .  S
Eu3363     O3373   2.354       .  S
Eu3363     O3364   2.351       .  S
O3364     Eu3393   2.347       .  S
O3364     Eu3390   2.346       .  S
O3365     Eu3392   2.344       .  S
C3368      C3500   1.505       .  S
C3369      C3513   1.493       .  S
H3370      O3371   0.966       .  S
O3371     Eu3392   2.355       .  S
H3372      O3373   0.965       .  S
O3373     Eu3391   2.349       .  S
O3373     Eu3393   2.356       .  S
O3374      C3397   1.292       .  A
O3374     Eu3390   2.466   1_554  S
O3375      C3398   1.290       .  A
O3375     Eu3391   2.452       .  S
O3376      C3399   1.290       .  A
O3376     Eu3392   2.452       .  S
O3377      C3400   1.293       .  A
O3377     Eu3393   2.470       .  S
O3378      C3401   1.292       .  A
O3378     Eu3393   2.464       .  S
O3379      C3402   1.290       .  A
O3379     Eu3392   2.454       .  S
O3380      C3403   1.287       .  A
O3381      C3404   1.285       .  A
O3381     Eu3394   2.437       .  S
O3382      C3403   1.291       .  A
O3382     Eu3392   2.464       .  S
O3383      C3404   1.289       .  A
O3383     Eu3393   2.450       .  S
O3384      C3399   1.290       .  A
O3385      C3402   1.293       .  A
O3386      C3401   1.293       .  A
O3386     Eu3391   2.467       .  S
O3387      C3400   1.292       .  A
O3387     Eu3390   2.463       .  S
O3388      C3397   1.288   1_556  A
O3388     Eu3394   2.451       .  S
O3389      C3398   1.287   1_554  A
O3389     Eu3394   2.441   1_554  S
Eu3390     O3408   2.345       .  S
Eu3391     O3395   2.345       .  S
Eu3392     O3406   2.351       .  S
Eu3392     O3396   2.346       .  S
Eu3393     O3395   2.345       .  S
Eu3393     O3408   2.355       .  S
Eu3394     O3395   2.345       .  S
Eu3394     O3408   2.351       .  S
C3399      C3423   1.469       .  S
C3400      C3433   1.485       .  S
C3401      C3443   1.477       .  S
C3402      C3413   1.480       .  S
C3403      C3493   1.498       .  S
C3404      C3523   1.489       .  S
H3405      O3406   0.966       .  S
H3407      O3408   0.966       .  S
C3409      C3410   1.413       .  A
C3409      C3414   1.408       .  A
C3409     Br3416   1.935       .  S
C3410      C3411   1.412       .  A
C3411      C3412   1.407       .  A
C3411     Br3418   1.934       .  S
C3412      C3413   1.411       .  A
C3412     Br3417   1.930       .  S
C3413      C3414   1.412       .  A
C3414     Br3415   1.932       .  S
C3419      C3420   1.413       .  A
C3419      C3424   1.406       .  A
C3419     Br3426   1.932       .  S
C3420      C3421   1.413       .  A
C3421      C3422   1.403       .  A
C3421     Br3428   1.928       .  S
C3422      C3423   1.407       .  A
C3422     Br3427   1.932       .  S
C3423      C3424   1.408       .  A
C3424     Br3425   1.930       .  S
C3429      C3430   1.412       .  A
C3429      C3434   1.410       .  A
C3429     Br3436   1.933       .  S
C3430      C3431   1.413       .  A
C3431      C3432   1.410       .  A
C3431     Br3438   1.932       .  S
C3432      C3433   1.413       .  A
C3432     Br3437   1.932       .  S
C3433      C3434   1.413       .  A
C3434     Br3435   1.931       .  S
C3439      C3440   1.410       .  A
C3439      C3444   1.407       .  A
C3439     Br3446   1.932       .  S
C3440      C3441   1.412       .  A
C3441      C3442   1.411       .  A
C3441     Br3448   1.932       .  S
C3442      C3443   1.411       .  A
C3442     Br3447   1.930       .  S
C3443      C3444   1.409       .  A
C3444     Br3445   1.930       .  S
C3449      C3450   1.413       .  A
C3449      C3454   1.409       .  A
C3449     Br3456   1.931       .  S
C3450      C3451   1.414       .  A
C3451      C3452   1.410       .  A
C3451     Br3458   1.935       .  S
C3452      C3453   1.416       .  A
C3452     Br3457   1.929       .  S
C3453      C3454   1.412       .  A
C3454     Br3455   1.922       .  S
C3459      C3460   1.415       .  A
C3459      C3464   1.412       .  A
C3459     Br3466   1.929       .  S
C3460      C3461   1.412       .  A
C3461      C3462   1.410       .  A
C3461     Br3468   1.924       .  S
C3462      C3463   1.411       .  A
C3462     Br3467   1.933       .  S
C3463      C3464   1.415       .  A
C3464     Br3465   1.932       .  S
C3469      C3470   1.416       .  A
C3469      C3474   1.409       .  A
C3469     Br3476   1.930       .  S
C3470      C3471   1.415       .  A
C3471      C3472   1.411       .  A
C3471     Br3478   1.930       .  S
C3472      C3473   1.412       .  A
C3472     Br3477   1.933       .  S
C3473      C3474   1.414       .  A
C3474     Br3475   1.936       .  S
C3479      C3480   1.414       .  A
C3479      C3484   1.411       .  A
C3479     Br3486   1.932       .  S
C3480      C3481   1.412       .  A
C3481      C3482   1.410       .  A
C3481     Br3488   1.925       .  S
C3482      C3483   1.414       .  A
C3482     Br3487   1.933       .  S
C3483      C3484   1.415       .  A
C3484     Br3485   1.933       .  S
C3489      C3490   1.426       .  A
C3489      C3494   1.406       .  A
C3489     Br3496   1.942       .  S
C3490      C3491   1.428       .  A
C3491      C3492   1.412       .  A
C3491     Br3498   1.943       .  S
C3492      C3493   1.418       .  A
C3492     Br3497   1.941       .  S
C3493      C3494   1.414       .  A
C3494     Br3495   1.939       .  S
C3499      C3500   1.422       .  A
C3499      C3504   1.408       .  A
C3499     Br3506   1.941       .  S
C3500      C3501   1.421       .  A
C3501      C3502   1.407       .  A
C3501     Br3508   1.939       .  S
C3502      C3503   1.422       .  A
C3502     Br3507   1.940       .  S
C3503      C3504   1.422       .  A
C3504     Br3505   1.940       .  S
C3509      C3510   1.422       .  A
C3509      C3514   1.401       .  A
C3509     Br3516   1.942       .  S
C3510      C3511   1.425       .  A
C3511      C3512   1.411       .  A
C3511     Br3518   1.945       .  S
C3512      C3513   1.423       .  A
C3512     Br3517   1.944       .  S
C3513      C3514   1.414       .  A
C3514     Br3515   1.940       .  S
C3519      C3520   1.426       .  A
C3519      C3524   1.409       .  A
C3519     Br3526   1.943       .  S
C3520      C3521   1.423       .  A
C3521      C3522   1.400       .  A
C3521     Br3528   1.940       .  S
C3522      C3523   1.412       .  A
C3522     Br3527   1.938       .  S
C3523      C3524   1.419       .  A
C3524     Br3525   1.942       .  S
C3529      C3530   1.421       .  A
C3529      C3534   1.414       .  A
C3529     Br3536   1.934       .  S
C3531      C3532   1.404   1_556  A
C3531     Br3538   1.937       .  S
C3532     Br3537   1.937   1_554  S
C3533      C3534   1.416       .  A
C3534     Br3535   1.937       .  S
C3539      C3544   1.412       .  A
C3539     Br3546   1.938       .  S
C3540      C3541   1.412       .  A
C3541      C3542   1.406       .  A
C3541     Br3548   1.943       .  S
C3542      C3543   1.426       .  A
C3542     Br3547   1.940       .  S
C3544     Br3545   1.938       .  S
C3549      C3550   1.424       .  A
C3549      C3554   1.413       .  A
C3549     Br3556   1.941       .  S
C3551      C3552   1.409       .  A
C3551     Br3558   1.944       .  S
C3552     Br3557   1.941       .  S
C3553      C3554   1.418       .  A
C3554     Br3555   1.935       .  S
C3559      C3560   1.428       .  A
C3559      C3564   1.410       .  A
C3559     Br3566   1.943       .  S
C3561      C3562   1.410       .  A
C3561     Br3568   1.942       .  S
C3562     Br3567   1.933       .  S
C3563      C3564   1.418       .  A
C3564     Br3565   1.942       .  S
C3569      C3574   1.410       .  A
C3569     Br3576   1.922       .  S
C3570      C3571   1.417       .  A
C3571      C3572   1.410       .  A
C3571     Br3578   1.932       .  S
C3572      C3573   1.415       .  A
C3572     Br3577   1.935       .  S
C3574     Br3575   1.935       .  S
C3579      C3580   1.415       .  A
C3579      C3584   1.413       .  A
C3579     Br3586   1.917       .  S
C3581      C3582   1.412       .  A
C3581     Br3588   1.931       .  S
C3582     Br3587   1.936       .  S
C3583      C3584   1.411       .  A
C3584     Br3585   1.934       .  S
C3589      C3594   1.412       .  A
C3589     Br3596   1.927       .  S
C3590      C3591   1.414       .  A
C3591      C3592   1.410       .  A
C3591     Br3598   1.928       .  S
C3592      C3593   1.414       .  A
C3592     Br3597   1.931       .  S
C3594     Br3595   1.929       .  S
C3599      C3600   1.409       .  A
C3599      C3604   1.406       .  A
C3599     Br3606   1.915       .  S
C3601      C3602   1.409       .  A
C3601     Br3608   1.927       .  S
C3602     Br3607   1.928       .  S
C3603      C3604   1.406       .  A
C3604     Br3605   1.928       .  S
C3609      C3610   1.408       .  A
C3609      C3614   1.407       .  A
C3609     Br3616   1.922       .  S
C3611      C3612   1.409       .  A
C3611     Br3618   1.931       .  S
C3612     Br3617   1.924       .  S
C3613      C3614   1.409       .  A
C3614     Br3615   1.930       .  S
C3619      C3620   1.409       .  A
C3619      C3624   1.409       .  A
C3619     Br3626   1.927       .  S
C3621      C3622   1.406       .  A
C3621     Br3628   1.931       .  S
C3622     Br3627   1.926       .  S
C3623      C3624   1.409       .  A
C3624     Br3625   1.930       .  S
C3629      C3630   1.413       .  A
C3629      C3634   1.411       .  A
C3629     Br3636   1.934       .  S
C3631      C3632   1.409       .  A
C3631     Br3638   1.932       .  S
C3632     Br3637   1.934       .  S
C3633      C3634   1.420       .  A
C3634     Br3635   1.933       .  S
C3639      C3640   1.410       .  A
C3639      C3644   1.411       .  A
C3639     Br3646   1.928       .  S
C3641      C3642   1.407       .  A
C3641     Br3648   1.921       .  S
C3642     Br3647   1.928       .  S
C3643      C3644   1.410       .  A
C3644     Br3645   1.927       .  S
