geometry optimzed in LAMMPS
_audit_creation_date              2020-11-30 
_audit_creation_method            'lammps2cif' 
_symmetry_space_group_name_H-M    'P1' 
_symmetry_Int_Tables_number       1 
_symmetry_cell_setting            triclinic 
loop_ 
_symmetry_equiv_pos_as_xyz 
  x,y,z 
_cell_length_a                    41.26805053758926 
_cell_length_b                    41.25959643125356 
_cell_length_c                    41.43093103306419 
_cell_angle_alpha                 90.05326613045135 
_cell_angle_beta                  89.9430564673714 
_cell_angle_gamma                 89.9806608981891 
loop_ 
_atom_site_label 
_atom_site_type_symbol 
_atom_site_fract_x 
_atom_site_fract_y 
_atom_site_fract_z 
_atom_site_charge 
C1          C  0.85524434  0.35907076  0.86025421    -0.02690
C2          C  0.35870898  0.85450411  0.85983051    -0.02690
C3          C  0.35753381  0.85827718  0.18980817    -0.02690
C4          C  0.67954572  0.85778432  0.85420598    -0.02690
C5          C  0.35364780  0.19268673  0.84473388    -0.02690
C6          C  0.84938297  0.68073889  0.85486402    -0.02690
C7          C  0.17930440  0.35511195  0.85579223    -0.02690
C8          C  0.85673479  0.35105759  0.19409663    -0.02690
C9          C  0.84708980  0.84351642  0.68866941    -0.02690
C10         C  0.17973739  0.85227618  0.35228109    -0.02690
C11         C  0.85291202  0.68494882  0.18622547    -0.02690
C12         C  0.19063391  0.68671786  0.85246601    -0.02690
C13         C  0.69269241  0.19418996  0.85061727    -0.02690
C14         C  0.68867775  0.86135699  0.18347380    -0.02690
C15         C  0.84545719  0.19056663  0.68483650    -0.02690
C16         C  0.18649320  0.84944335  0.68817675    -0.02690
O17         O  0.49157587  0.81579605  0.26102023    -0.73150
O18         O  0.55260029  0.75672506  0.30666512    -0.74130
O19         O  0.55943193  0.80808203  0.26106546    -0.62750
O20         O  0.48525962  0.76413294  0.30544015    -0.71160
O21         O  0.48088614  0.72917989  0.26513460    -0.70710
O22         O  0.55590862  0.77398644  0.22014887    -0.61970
O23         O  0.54893520  0.72201154  0.26613035    -0.74470
O24         O  0.48720568  0.78149503  0.22010336    -0.73250
Cu25       Cu  0.52240336  0.78737122  0.28482787     1.04560
Cu26       Cu  0.51820682  0.75041288  0.24139724     1.04330
C27         C  0.47930659  0.80812073  0.23379256     0.93050
C28         C  0.56010812  0.72962354  0.29388880     0.92190
C29         C  0.56934735  0.79859012  0.23333349     0.84330
C30         C  0.47127517  0.73974347  0.29255173     0.90610
O31         O  0.48456738  0.76098404  0.72710884    -0.73150
O32         O  0.55083553  0.80982855  0.77572098    -0.74130
O33         O  0.55362389  0.76197181  0.72674803    -0.62750
O34         O  0.48266635  0.80721241  0.77891942    -0.71160
O35         O  0.48543879  0.76746146  0.81444599    -0.70710
O36         O  0.55503549  0.72221614  0.76250570    -0.61970
O37         O  0.55508235  0.77149700  0.81253091    -0.74470
O38         O  0.48477331  0.72042220  0.76194512    -0.73250
Cu39       Cu  0.51780196  0.78611128  0.75087806     1.04560
Cu40       Cu  0.52010690  0.74388443  0.78912877     1.04330
C41         C  0.47345100  0.73367502  0.73621594     0.93050
C42         C  0.56384939  0.79927568  0.80138560     0.92190
C43         C  0.56591263  0.73518372  0.73674700     0.84330
C44         C  0.47338969  0.79457126  0.80569469     0.90610
O45         O  0.73173881  0.27885208  0.47754053    -0.73150
O46         O  0.77807533  0.23276476  0.54946312    -0.74130
O47         O  0.72865988  0.28115812  0.54510937    -0.62750
O48         O  0.78192738  0.23097248  0.48095469    -0.71160
O49         O  0.81838763  0.27028199  0.48242959    -0.70710
O50         O  0.76529720  0.32054438  0.54656972    -0.61970
O51         O  0.81475775  0.27173592  0.55113103    -0.74470
O52         O  0.76814604  0.31802822  0.47878390    -0.73250
Cu53       Cu  0.75382683  0.25462211  0.51317152     1.04560
Cu54       Cu  0.79298165  0.29645886  0.51465183     1.04330
C55         C  0.74193722  0.30621969  0.46731345     0.93050
C56         C  0.80382616  0.24468010  0.56177163     0.92190
C57         C  0.73856500  0.30839728  0.55609899     0.84330
C58         C  0.80880227  0.24301777  0.47135958     0.90610
C59         C  0.68717930  0.19168646  0.19046759    -0.02690
C60         C  0.68593353  0.35436707  0.34881954    -0.02690
O61         O  0.77302120  0.48313744  0.22233279    -0.73150
O62         O  0.72316122  0.55504201  0.26691678    -0.74130
O63         O  0.77074893  0.55126810  0.21727647    -0.62750
O64         O  0.72395944  0.48721055  0.27052880    -0.71160
O65         O  0.76085198  0.48883543  0.30942554    -0.70710
O66         O  0.80816105  0.55635828  0.25519546    -0.61970
O67         O  0.76003029  0.55721400  0.30587496    -0.74470
O68         O  0.80999109  0.48794755  0.26066777    -0.73250
Cu69       Cu  0.74636558  0.51908091  0.24307804     1.04560
Cu70       Cu  0.78614053  0.52274491  0.28413672     1.04330
C71         C  0.79997694  0.47434181  0.23482580     0.93050
C72         C  0.73364426  0.56713167  0.29343258     0.92190
C73         C  0.79676050  0.56422867  0.22744410     0.84330
C74         C  0.73461420  0.47730404  0.29763898     0.90610
C75         C  0.67983648  0.68980920  0.34450303    -0.02690
C76         C  0.76853266  0.77301408  0.26625990    -0.02690
O77         O  0.77325042  0.81014461  0.48645455    -0.73150
O78         O  0.72667787  0.75549568  0.55045059    -0.74130
O79         O  0.77497956  0.80507811  0.55460287    -0.62750
O80         O  0.72587000  0.76033715  0.48239247    -0.71160
O81         O  0.76396915  0.72290424  0.47852850    -0.70710
O82         O  0.81358346  0.76817187  0.54927640    -0.61970
O83         O  0.76553858  0.71836377  0.54743463    -0.74470
O84         O  0.81182725  0.77317252  0.48060577    -0.73250
Cu85       Cu  0.74888921  0.78399734  0.51853998     1.04560
Cu86       Cu  0.79009918  0.74433010  0.51381137     1.04330
C87         C  0.79909685  0.80028537  0.47271743     0.93050
C88         C  0.73904320  0.72877530  0.55972821     0.92190
C89         C  0.80215933  0.79318236  0.56357735     0.84330
C90         C  0.73697598  0.73460584  0.46897845     0.90610
C91         C  0.69011172  0.68540420  0.68560907    -0.02690
C92         C  0.76243398  0.76737289  0.77837853    -0.02690
O93         O  0.78054311  0.54952139  0.80896736    -0.73150
O94         O  0.72932775  0.48009919  0.76149323    -0.74130
O95         O  0.77900238  0.48149102  0.81003336    -0.62750
O96         O  0.72982698  0.54920168  0.76210605    -0.71160
O97         O  0.76589706  0.54954674  0.72276083    -0.70710
O98         O  0.81672005  0.48018112  0.77220792    -0.61970
O99         O  0.76619356  0.47948655  0.72284697    -0.74470
O100        O  0.81699276  0.54884506  0.76978477    -0.73250
Cu101      Cu  0.75336746  0.51500176  0.78679119     1.04560
Cu102      Cu  0.79265987  0.51434845  0.74541192     1.04330
C103        C  0.80726309  0.55976457  0.79698404     0.93050
C104        C  0.73956687  0.46878932  0.73446809     0.92190
C105        C  0.80632157  0.47111775  0.79997392     0.84330
C106        C  0.73996575  0.56103675  0.73556567     0.90610
C107        C  0.67989429  0.34928382  0.67958855    -0.02690
C108        C  0.77140472  0.28450939  0.76920554    -0.02690
O109        O  0.48836120  0.22537269  0.77802072    -0.73150
O110        O  0.55217309  0.26938296  0.72015585    -0.74130
O111        O  0.55724467  0.22530618  0.77428755    -0.62750
O112        O  0.48435113  0.27091231  0.72519220    -0.71160
O113        O  0.48894080  0.31179184  0.75965666    -0.70710
O114        O  0.55938529  0.26692587  0.80773785    -0.61970
O115        O  0.55600692  0.31085243  0.75375385    -0.74470
O116        O  0.49073785  0.26635929  0.81229362    -0.73250
Cu117      Cu  0.52054951  0.24625208  0.74823847     1.04560
Cu118      Cu  0.52394260  0.29031058  0.78455076     1.04330
C119        C  0.47924655  0.23856203  0.80435360     0.93050
C120        C  0.56335754  0.29736066  0.72686646     0.92190
C121        C  0.56944476  0.23890725  0.79936297     0.84330
C122        C  0.47558526  0.29904396  0.73502071     0.90610
C123        C  0.18488586  0.18533306  0.68824856    -0.02690
C124        C  0.35496110  0.35803433  0.68378153    -0.02690
O125        O  0.28211764  0.48566537  0.72898015    -0.73150
O126        O  0.22541591  0.55142715  0.77446808    -0.74130
O127        O  0.27788461  0.55429388  0.73007863    -0.62750
O128        O  0.22933845  0.48259667  0.77419462    -0.71160
O129        O  0.26298559  0.48426863  0.81568673    -0.70710
O130        O  0.31290482  0.55690756  0.77020792    -0.61970
O131        O  0.25992875  0.55350444  0.81526268    -0.74470
O132        O  0.31632419  0.48740880  0.76993988    -0.73250
Cu133      Cu  0.25254474  0.51836493  0.75062630     1.04560
Cu134      Cu  0.28929238  0.52049063  0.79420571     1.04330
C135        C  0.30844121  0.47617764  0.74221993     0.93050
C136        C  0.23375454  0.56310550  0.80184400     0.92190
C137        C  0.30293916  0.56729530  0.74282994     0.84330
C138        C  0.23783384  0.47228695  0.80205785     0.90610
C139        C  0.34970192  0.68910644  0.67827537    -0.02690
C140        C  0.27611861  0.77295695  0.77315105    -0.02690
O141        O  0.27394013  0.72696805  0.54622638    -0.73150
O142        O  0.22495393  0.78326482  0.48160578    -0.74130
O143        O  0.27284833  0.73273273  0.47738005    -0.62750
O144        O  0.22584862  0.77717824  0.55019203    -0.71160
O145        O  0.26451737  0.81454504  0.55183393    -0.70710
O146        O  0.31186362  0.76931164  0.47894008    -0.61970
O147        O  0.26435667  0.81964949  0.48331063    -0.74470
O148        O  0.31189103  0.76481699  0.54735854    -0.73250
Cu149      Cu  0.24796602  0.75378619  0.51363410     1.04560
Cu150      Cu  0.28939876  0.79335622  0.51535798     1.04330
C151        C  0.30083828  0.73765542  0.55735329     0.93050
C152        C  0.23700101  0.81032276  0.47234563     0.92190
C153        C  0.30006864  0.74331489  0.46693572     0.84330
C154        C  0.23819042  0.80252966  0.56289381     0.90610
C155        C  0.18914028  0.68766946  0.19006490    -0.02690
C156        C  0.35223639  0.68278706  0.35112271    -0.02690
C157        C  0.34832891  0.34268759  0.35227593    -0.02690
O158        O  0.21919012  0.48432882  0.26752648    -0.73150
O159        O  0.27173006  0.54885585  0.31538436    -0.74130
O160        O  0.22388576  0.55231754  0.26608860    -0.62750
O161        O  0.26790610  0.47968832  0.31557230    -0.71160
O162        O  0.30632377  0.47732714  0.27832871    -0.70710
O163        O  0.26266473  0.54869624  0.22912427    -0.61970
O164        O  0.31092519  0.54665454  0.27870499    -0.74470
O165        O  0.25720443  0.48057996  0.22983348    -0.73250
Cu166      Cu  0.24445578  0.51630880  0.29249333     1.04560
Cu167      Cu  0.28567078  0.51312620  0.25270508     1.04330
C168        C  0.22958559  0.47225168  0.24122561     0.93050
C169        C  0.29886103  0.55885282  0.30448794     0.92190
C170        C  0.23681601  0.56199579  0.23972238     0.84330
C171        C  0.29401281  0.46687471  0.30459371     0.90610
C172        C  0.27138046  0.77488243  0.27337093    -0.02690
O173        O  0.05377413  0.72441952  0.27004497    -0.73150
O174        O  0.98155365  0.76889637  0.31864674    -0.74130
O175        O  0.98499552  0.72161325  0.26861054    -0.62750
O176        O  0.04912228  0.77196328  0.31970141    -0.71160
O177        O  0.04870009  0.81137779  0.28350684    -0.70710
O178        O  0.98378355  0.76005604  0.23124357    -0.61970
O179        O  0.98057894  0.80790482  0.28204360    -0.74470
O180        O  0.05305786  0.76342532  0.23351153    -0.73250
Cu181      Cu  0.01738264  0.74533720  0.29535415     1.04560
Cu182      Cu  0.01646570  0.78698379  0.25614149     1.04330
C183        C  0.06522630  0.73697991  0.24426350     0.93050
C184        C  0.97044592  0.79603965  0.30872613     0.92190
C185        C  0.97376189  0.73287898  0.24218574     0.84330
C186        C  0.05879197  0.79978436  0.31024208     0.90610
O187        O  0.27330810  0.72229219  0.98698717    -0.73150
O188        O  0.31819703  0.76809423  0.06038157    -0.74130
O189        O  0.27061600  0.71848561  0.05539064    -0.62750
O190        O  0.32105520  0.77269741  0.99190750    -0.71160
O191        O  0.28128676  0.80888922  0.99313282    -0.70710
O192        O  0.23154932  0.75510823  0.05767502    -0.61970
O193        O  0.27959670  0.80523344  0.06186501    -0.74470
O194        O  0.23355006  0.75803189  0.98856869    -0.73250
Cu195      Cu  0.29707869  0.74417517  0.02366778     1.04560
Cu196      Cu  0.25513313  0.78314322  0.02532779     1.04330
C197        C  0.24624852  0.73254846  0.97603761     0.93050
C198        C  0.30628343  0.79380650  0.07282035     0.92190
C199        C  0.24374366  0.72832553  0.06725190     0.84330
C200        C  0.30861157  0.79927522  0.98210545     0.90610
C201        C  0.26572282  0.27891475  0.76651626    -0.02690
O202        O  0.27695137  0.05318781  0.81624634    -0.73150
O203        O  0.22758690  0.98137449  0.77140044    -0.74130
O204        O  0.27921637  0.98401195  0.81849764    -0.62750
O205        O  0.22591595  0.05109141  0.77012938    -0.71160
O206        O  0.26249061  0.05029684  0.73084082    -0.70710
O207        O  0.31469423  0.98386505  0.77848223    -0.61970
O208        O  0.26355523  0.98118769  0.73194581    -0.74470
O209        O  0.31292030  0.05234279  0.77671858    -0.73250
Cu210      Cu  0.25107706  0.01723473  0.79543116     1.04560
Cu211      Cu  0.28955172  0.01676157  0.75316511     1.04330
C212        C  0.30258782  0.06459699  0.80317159     0.93050
C213        C  0.23755344  0.96989165  0.74444817     0.92190
C214        C  0.30579514  0.97373395  0.80626646     0.84330
C215        C  0.23690740  0.06226077  0.74350168     0.90610
O216        O  0.05314422  0.29982910  0.77982210    -0.73150
O217        O  0.98023555  0.25454774  0.73282260    -0.74130
O218        O  0.98463527  0.30356674  0.78072634    -0.62750
O219        O  0.04830009  0.25016795  0.73134952    -0.71160
O220        O  0.04747051  0.21231666  0.76942728    -0.70710
O221        O  0.98285079  0.26671219  0.81942929    -0.61970
O222        O  0.97876527  0.21738109  0.77155739    -0.74470
O223        O  0.05184025  0.26198081  0.81770522    -0.73250
Cu224      Cu  0.01667744  0.27824776  0.75481598     1.04560
Cu225      Cu  0.01519324  0.23821619  0.79581265     1.04330
C226        C  0.06390755  0.28813050  0.80633702     0.93050
C227        C  0.96771723  0.22918169  0.74529972     0.92190
C228        C  0.97324350  0.29371288  0.80768666     0.84330
C229        C  0.05829146  0.22316248  0.74261872     0.90610
O230        O  0.26146717  0.22444980  0.48794529    -0.73150
O231        O  0.30921041  0.27346429  0.55736146    -0.74130
O232        O  0.25856602  0.22636639  0.55673434    -0.62750
O233        O  0.31159635  0.27101868  0.48961267    -0.71160
O234        O  0.27515440  0.31036188  0.48561864    -0.70710
O235        O  0.22168133  0.26505493  0.55423337    -0.61970
O236        O  0.27262063  0.31251454  0.55409014    -0.74470
O237        O  0.22423954  0.26300106  0.48492830    -0.73250
Cu238      Cu  0.28635492  0.24749502  0.52306588     1.04560
Cu239      Cu  0.24708297  0.28912729  0.51971025     1.04330
C240        C  0.23572334  0.23594172  0.47507637     0.93050
C241        C  0.29878318  0.30119736  0.56629106     0.92190
C242        C  0.23176683  0.23845164  0.56651657     0.84330
C243        C  0.30188305  0.29739411  0.47677417     0.90610
C244        C  0.77603854  0.26513725  0.28069796    -0.02690
O245        O  0.76647170  0.06206034  0.23565806    -0.73150
O246        O  0.81483412  0.98832409  0.27598955    -0.74130
O247        O  0.76990886  0.99425219  0.22409415    -0.62750
O248        O  0.81206628  0.05455649  0.28720414    -0.71160
O249        O  0.77136568  0.04865572  0.32178595    -0.70710
O250        O  0.72926362  0.98638713  0.25816198    -0.61970
O251        O  0.77484012  0.98144101  0.31108921    -0.74470
O252        O  0.72575547  0.05479991  0.26969182    -0.73250
Cu253      Cu  0.79208784  0.02505200  0.25452317     1.04560
Cu254      Cu  0.74876704  0.01747681  0.29133652     1.04330
C255        C  0.73849814  0.07031855  0.24620872     0.93050
C256        C  0.80310862  0.97417592  0.30078829     0.92190
C257        C  0.74324640  0.98026484  0.23118037     0.84330
C258        C  0.79888440  0.06081808  0.31439386     0.90610
O259        O  0.81569488  0.27380618  0.06131514    -0.73150
O260        O  0.77348307  0.22352064  0.98853653    -0.74130
O261        O  0.81925352  0.27705390  0.99227596    -0.62750
O262        O  0.77089337  0.22125150  0.05705390    -0.71160
O263        O  0.72950429  0.25572580  0.05578050    -0.70710
O264        O  0.77745638  0.31073395  0.99284207    -0.61970
O265        O  0.73228557  0.25815223  0.98890222    -0.74470
O266        O  0.77399163  0.30753561  0.06079644    -0.73250
Cu267      Cu  0.79631613  0.24755667  0.02472831     1.04560
Cu268      Cu  0.75201583  0.28418089  0.02449852     1.04330
C269        C  0.80087768  0.29841347  0.07302020     0.93050
C270        C  0.74605509  0.23290350  0.97756524     0.92190
C271        C  0.80559602  0.30305172  0.98232039     0.84330
C272        C  0.74289874  0.23024561  0.06682745     0.90610
O273        O  0.55053510  0.32246002  0.26285312    -0.73150
O274        O  0.48118809  0.26689814  0.22060429    -0.74130
O275        O  0.48162617  0.31957997  0.26532124    -0.62750
O276        O  0.54977017  0.27063828  0.21666661    -0.71160
O277        O  0.55385201  0.23497911  0.25622536    -0.70710
O278        O  0.48460249  0.28494578  0.30596049    -0.61970
O279        O  0.48497675  0.23249321  0.26156691    -0.74470
O280        O  0.55327668  0.28685940  0.30288994    -0.73250
Cu281      Cu  0.51566354  0.29615228  0.24001799     1.04560
Cu282      Cu  0.51934172  0.25861791  0.28306724     1.04330
C283        C  0.56290602  0.31297460  0.28957939     0.93050
C284        C  0.47210248  0.24094463  0.23491548     0.92190
C285        C  0.47175884  0.30998528  0.29287601     0.84330
C286        C  0.56276952  0.24516439  0.22830946     0.90610
C287        C  0.18450776  0.35686785  0.17832811    -0.02690
C288        C  0.35338059  0.18585940  0.18405158    -0.02690
C289        C  0.18274581  0.18295677  0.35564024    -0.02690
C290        C  0.25945083  0.26637697  0.26306429    -0.02690
O291        O  0.98830182  0.30774941  0.25683992    -0.73150
O292        O  0.05274770  0.26306293  0.31383976    -0.74130
O293        O  0.05719302  0.30857423  0.26127265    -0.62750
O294        O  0.98446705  0.26010960  0.30815597    -0.71160
O295        O  0.98860049  0.22093364  0.27203673    -0.70710
O296        O  0.05956668  0.26759879  0.22704122    -0.61970
O297        O  0.05622114  0.22233127  0.27924488    -0.74470
O298        O  0.99115373  0.26780815  0.22124532    -0.73250
Cu299      Cu  0.02051061  0.28635993  0.28623339     1.04560
Cu300      Cu  0.02402606  0.24341728  0.24865955     1.04330
C301        C  0.97956136  0.29527155  0.23004764     0.93050
C302        C  0.06419739  0.23537422  0.30616370     0.92190
C303        C  0.06986323  0.29515246  0.23630375     0.84330
C304        C  0.97578477  0.23210526  0.29766245     0.90610
O305        O  0.30469815  0.05602387  0.25788884    -0.73150
O306        O  0.25848248  0.98458969  0.30748571    -0.74130
O307        O  0.30601744  0.98679228  0.25716618    -0.62750
O308        O  0.25646316  0.05392510  0.30860017    -0.71160
O309        O  0.21839955  0.05311063  0.27087038    -0.70710
O310        O  0.26697468  0.98684241  0.22049169    -0.61970
O311        O  0.22026946  0.98452295  0.26996776    -0.74470
O312        O  0.26586636  0.05511775  0.22119686    -0.73250
Cu313      Cu  0.28284009  0.02041970  0.28416173     1.04560
Cu314      Cu  0.24158403  0.01995021  0.24450307     1.04330
C315        C  0.29264908  0.06669979  0.23143981     0.93050
C316        C  0.23214872  0.97297270  0.29603324     0.92190
C317        C  0.29384645  0.97586378  0.23091976     0.84330
C318        C  0.22940537  0.06411438  0.29749974     0.90610
O319        O  0.31202462  0.26096471  0.98184878    -0.73150
O320        O  0.26661893  0.31153088  0.05006876    -0.74130
O321        O  0.31325614  0.26176960  0.05058617    -0.62750
O322        O  0.26460833  0.31071460  0.98260362    -0.71160
O323        O  0.22474213  0.27512332  0.98427390    -0.70710
O324        O  0.27480725  0.22442609  0.05230746    -0.61970
O325        O  0.22719982  0.27525117  0.05302372    -0.74470
O326        O  0.27254436  0.22441972  0.98224042    -0.73250
Cu327      Cu  0.29046943  0.28727519  0.01623073     1.04560
Cu328      Cu  0.24850005  0.24828077  0.01800648     1.04330
C329        C  0.29893721  0.23549651  0.97029828     0.93050
C330        C  0.24015753  0.30174204  0.06256185     0.92190
C331        C  0.30162542  0.23585109  0.06290068     0.84330
C332        C  0.23669020  0.30147932  0.97306771     0.90610
O333        O  0.98359450  0.72103981  0.77989929    -0.73150
O334        O  0.05362072  0.76353022  0.72563595    -0.74130
O335        O  0.05311807  0.72072692  0.78002827    -0.62750
O336        O  0.98390735  0.76431109  0.72593896    -0.71160
O337        O  0.98466470  0.80749036  0.75791811    -0.70710
O338        O  0.05198476  0.76330801  0.81266077    -0.61970
O339        O  0.05375094  0.80605904  0.75820538    -0.74470
O340        O  0.98244225  0.76407873  0.81177564    -0.73250
Cu341      Cu  0.01853301  0.74096474  0.75169230     1.04560
Cu342      Cu  0.01824132  0.78662494  0.78630533     1.04330
C343        C  0.97167242  0.73590854  0.80427119     0.93050
C344        C  0.06514540  0.79122657  0.73348839     0.92190
C345        C  0.06405934  0.73591694  0.80462103     0.84330
C346        C  0.97307816  0.79237282  0.73367925     0.90610
O347        O  0.76431755  0.98919734  0.81515097    -0.73150
O348        O  0.81186264  0.05363842  0.75816763    -0.74130
O349        O  0.76629692  0.05803363  0.80970290    -0.62750
O350        O  0.81112571  0.98327100  0.76374351    -0.71160
O351        O  0.77118761  0.98207253  0.72849660    -0.70710
O352        O  0.72712065  0.05723076  0.77322515    -0.61970
O353        O  0.77229894  0.05167722  0.72233469    -0.74470
O354        O  0.72455989  0.98924726  0.77911590    -0.73250
Cu355      Cu  0.78989707  0.02109735  0.78790240     1.04560
Cu356      Cu  0.74753470  0.01991964  0.74959704     1.04330
C357        C  0.73659397  0.97918955  0.80565221     0.93050
C358        C  0.79909980  0.06378887  0.73184845     0.92190
C359        C  0.73977619  0.06949002  0.79861152     0.84330
C360        C  0.79787122  0.97019882  0.73897569     0.90610
O361        O  0.76606023  0.81272389  0.04885504    -0.73150
O362        O  0.81123097  0.75696523  0.98241580    -0.74130
O363        O  0.76304534  0.80785427  0.98013368    -0.62750
O364        O  0.81367600  0.76277095  0.05057806    -0.71160
O365        O  0.77512311  0.72582617  0.05546161    -0.70710
O366        O  0.72442786  0.77096393  0.98466527    -0.61970
O367        O  0.77242226  0.72033026  0.98722741    -0.74470
O368        O  0.72702670  0.77602478  0.05349559    -0.73250
Cu369      Cu  0.78975936  0.78638834  0.01522946     1.04560
Cu370      Cu  0.74834046  0.74707979  0.02025265     1.04330
C371        C  0.73999702  0.80272696  0.06226692     0.93050
C372        C  0.79938454  0.72934186  0.97488046     0.92190
C373        C  0.73558678  0.79657578  0.97122226     0.84330
C374        C  0.80263498  0.73717407  0.06410189     0.90610
C375        C  0.86292226  0.17767418  0.35791913    -0.02690
C376        C  0.85152156  0.85461865  0.35332657    -0.02690
C377        C  0.91159452  0.16829966  0.31970017    -0.20510
C378        C  0.90023863  0.18049190  0.34940134    -0.07080
C379        C  0.92267944  0.20087696  0.36602114     0.13790
C380        C  0.94559829  0.21870827  0.34824333    -0.20560
C381        C  0.95145801  0.21198967  0.31556466    -0.07080
C382        C  0.93612716  0.18417416  0.30209076     0.13780
C383        C  0.94375372  0.17172641  0.26869249    -0.23910
H384        H  0.89956354  0.14803901  0.30873320     0.15070
H385        H  0.96063080  0.23628017  0.36066510     0.15100
C386        C  0.92778303  0.19969173  0.40206193    -0.23860
H387        H  0.92855255  0.15051570  0.26211010     0.05310
H388        H  0.96942457  0.16377625  0.26745402     0.08530
H389        H  0.93902923  0.19095836  0.25056821     0.08530
H390        H  0.91327805  0.18045142  0.41381529     0.08520
H391        H  0.92266756  0.22366393  0.41312946     0.08520
H392        H  0.95349988  0.19358534  0.40711189     0.05290
C393        C  0.19869153  0.11470949  0.29365295    -0.20510
C394        C  0.21151996  0.09074958  0.31355832    -0.07080
C395        C  0.20559858  0.09265608  0.34709196     0.13790
C396        C  0.19093402  0.12080819  0.35993661    -0.20560
C397        C  0.18501306  0.14816010  0.34049798    -0.07080
C398        C  0.18368910  0.14222808  0.30632368     0.13780
C399        C  0.16553152  0.16216538  0.28176744    -0.23910
H400        H  0.20030385  0.11197566  0.26763487     0.15070
H401        H  0.18625905  0.12216427  0.38557433     0.15100
C402        C  0.21444183  0.06526325  0.36926656    -0.23860
H403        H  0.14865630  0.14611940  0.26831314     0.05310
H404        H  0.18246545  0.17298774  0.26413652     0.08530
H405        H  0.15019459  0.18111391  0.29192634     0.08530
H406        H  0.24095322  0.06087000  0.36854197     0.08520
H407        H  0.20132152  0.04315382  0.36157558     0.08520
H408        H  0.20763116  0.07058174  0.39466926     0.05290
C409        C  0.10772169  0.23945666  0.34732588    -0.20510
C410        C  0.08814796  0.21958203  0.32803452    -0.07080
C411        C  0.09316507  0.18573888  0.32936946     0.13790
C412        C  0.12108711  0.17363629  0.34472600    -0.20560
C413        C  0.14617938  0.19475135  0.35493324    -0.07080
C414        C  0.13678259  0.22793774  0.36071014     0.13780
C415        C  0.15872516  0.25381234  0.37475863    -0.23910
H416        H  0.10253074  0.26518907  0.34872960     0.15070
H417        H  0.12481336  0.14770215  0.34467315     0.15100
C418        C  0.06976289  0.16225169  0.31412930    -0.23860
H419        H  0.16096203  0.27434811  0.35756962     0.05310
H420        H  0.18369298  0.24562419  0.37962373     0.08530
H421        H  0.14801554  0.26310949  0.39754674     0.08530
H422        H  0.07007771  0.16484857  0.28749795     0.08520
H423        H  0.04492473  0.16678924  0.32343088     0.08520
H424        H  0.07620229  0.13671790  0.31967243     0.05290
C425        C  0.18775247  0.22771005  0.31108146    -0.20510
C426        C  0.20372526  0.20561020  0.33222569    -0.07080
C427        C  0.23810133  0.20376179  0.32760565     0.13790
C428        C  0.25381494  0.22621300  0.30770087    -0.20560
C429        C  0.23735060  0.24746992  0.28670294    -0.07080
C430        C  0.20305112  0.24926751  0.29008634     0.13780
C431        C  0.18011598  0.27393401  0.27509305    -0.23910
H432        H  0.16194471  0.22837751  0.30904752     0.15070
H433        H  0.27999486  0.22467340  0.30581082     0.15100
C434        C  0.25933271  0.17570493  0.33706333    -0.23860
H435        H  0.16330739  0.28313535  0.29398545     0.05310
H436        H  0.16508905  0.26224682  0.25618091     0.08530
H437        H  0.19088777  0.29619789  0.26568066     0.08530
H438        H  0.24618632  0.15264954  0.33574658     0.08520
H439        H  0.27183584  0.18077409  0.36008201     0.08520
H440        H  0.27938396  0.17203214  0.31952269     0.05290
C441        C  0.33827604  0.24056597  0.11003583    -0.20510
C442        C  0.31917780  0.22049481  0.09055900    -0.07080
C443        C  0.32060757  0.18673612  0.09616419     0.13790
C444        C  0.33803540  0.17491282  0.12311313    -0.20560
C445        C  0.35187095  0.19600901  0.14653192    -0.07080
C446        C  0.35836727  0.22784549  0.13426776     0.13780
C447        C  0.39215414  0.24243191  0.13351833    -0.23910
H448        H  0.34076975  0.26590657  0.10357814     0.15070
H449        H  0.33917773  0.14898104  0.12634276     0.15100
C450        C  0.30401084  0.16304919  0.07400141    -0.23860
H451        H  0.39271398  0.26603307  0.12061185     0.05310
H452        H  0.40857223  0.22600751  0.11998028     0.08530
H453        H  0.40276840  0.24765973  0.15709259     0.08530
H454        H  0.31302788  0.16629487  0.04895346     0.08520
H455        H  0.27741937  0.16697847  0.07468078     0.08520
H456        H  0.30863748  0.13755319  0.08124399     0.05290
C457        C  0.31003250  0.14096412  0.17888109    -0.20510
C458        C  0.34250042  0.14881163  0.18767815    -0.07080
C459        C  0.36029164  0.12317091  0.20290955     0.13790
C460        C  0.34334940  0.09663366  0.21641330    -0.20560
C461        C  0.30972833  0.09280979  0.21282799    -0.07080
C462        C  0.29337168  0.11421795  0.19173600     0.13780
C463        C  0.25765565  0.11106819  0.18460776    -0.23910
H464        H  0.29582787  0.15886100  0.16603444     0.15070
H465        H  0.35663532  0.07860153  0.23006563     0.15100
C466        C  0.39678076  0.12122863  0.20344752    -0.23860
H467        H  0.24871186  0.13090813  0.16884987     0.05310
H468        H  0.24354482  0.11204750  0.20742768     0.08530
H469        H  0.25291995  0.08789621  0.17184104     0.08530
H470        H  0.40719975  0.13681858  0.22248922     0.08520
H471        H  0.40666401  0.12729352  0.17929832     0.08520
H472        H  0.40516719  0.09624443  0.20892842     0.05290
C473        C  0.30140228  0.25904687  0.21889353    -0.20510
C474        C  0.27927471  0.24354534  0.23983687    -0.07080
C475        C  0.27899087  0.20905086  0.23862047     0.13790
C476        C  0.30456757  0.19301688  0.22373612    -0.20560
C477        C  0.32813191  0.20794974  0.20361751    -0.07080
C478        C  0.32739535  0.24271795  0.20422945     0.13780
C479        C  0.35596918  0.26446634  0.19795091    -0.23910
H480        H  0.30170889  0.28532761  0.21846563     0.15070
H481        H  0.30583641  0.16775279  0.22981799     0.15100
C482        C  0.25170857  0.18649949  0.24832536    -0.23860
H483        H  0.35342463  0.27695759  0.17443567     0.05310
H484        H  0.37901686  0.25185585  0.20106789     0.08530
H485        H  0.35743615  0.28383150  0.21659640     0.08530
H486        H  0.24441615  0.17186485  0.22701884     0.08520
H487        H  0.22948688  0.19824760  0.25627060     0.08520
H488        H  0.25995983  0.16940919  0.26721130     0.05290
C489        C  0.14065140  0.31134115  0.17866943    -0.20510
C490        C  0.14859743  0.34394755  0.18525002    -0.07080
C491        C  0.12308161  0.36186590  0.20074525     0.13790
C492        C  0.09919544  0.34531671  0.21873081    -0.20560
C493        C  0.09620290  0.31147506  0.21744805    -0.07080
C494        C  0.11645387  0.29449983  0.19550228     0.13780
C495        C  0.11379376  0.25843654  0.18979527    -0.23910
H496        H  0.15293745  0.29851875  0.15973723     0.15070
H497        H  0.08133202  0.35922739  0.23205578     0.15100
C498        C  0.11653200  0.39738118  0.19489721    -0.23860
H499        H  0.13302384  0.24932402  0.17334129     0.05310
H500        H  0.09018051  0.25259239  0.17840907     0.08530
H501        H  0.11645284  0.24525920  0.21300409     0.08530
H502        H  0.13112831  0.40743097  0.17493169     0.08520
H503        H  0.12026679  0.41153688  0.21737913     0.08520
H504        H  0.09092621  0.40055887  0.18726809     0.05290
C505        C  0.19144379  0.32461530  0.09057531    -0.20510
C506        C  0.22527400  0.32110298  0.08879004    -0.07080
C507        C  0.24470661  0.33697699  0.11187345     0.13790
C508        C  0.22980950  0.35356821  0.13712987    -0.20560
C509        C  0.19595443  0.35274003  0.14246589    -0.07080
C510        C  0.17659484  0.34166333  0.11619762     0.13780
C511        C  0.14114957  0.34953369  0.11257083    -0.23910
H512        H  0.17653456  0.31472609  0.07141780     0.15070
H513        H  0.24532669  0.36453607  0.15473331     0.15100
C514        C  0.28128417  0.33456434  0.11190511    -0.23860
H515        H  0.13717043  0.36142129  0.08886377     0.05310
H516        H  0.13240898  0.36684560  0.13097322     0.08530
H517        H  0.12647567  0.32701119  0.11335294     0.08530
H518        H  0.29146665  0.34719522  0.09056493     0.08520
H519        H  0.28877938  0.30870090  0.11179311     0.08520
H520        H  0.29217442  0.34600405  0.13361890     0.05290
C521        C  0.24942687  0.32294885  0.23982008    -0.20510
C522        C  0.24185004  0.28965416  0.23942421    -0.07080
C523        C  0.22233458  0.27872969  0.21304584     0.13790
C524        C  0.20917261  0.30143570  0.19195599    -0.20560
C525        C  0.20921085  0.33487184  0.19812502    -0.07080
C526        C  0.23527237  0.34523568  0.21881629     0.13780
C527        C  0.25394378  0.37689546  0.21715829    -0.23910
H528        H  0.26833709  0.33221564  0.25523642     0.15070
H529        H  0.20034201  0.29263842  0.16926272     0.15100
C530        C  0.21464044  0.24372978  0.20549642    -0.23860
H531        H  0.27994262  0.37150276  0.21258651     0.05310
H532        H  0.25243761  0.38973218  0.24066034     0.08530
H533        H  0.24718490  0.39346498  0.19772494     0.08530
H534        H  0.19663454  0.24142190  0.18570948     0.08520
H535        H  0.20333024  0.23184790  0.22641580     0.08520
H536        H  0.23634483  0.23066257  0.19687769     0.05290
C537        C  0.41976107  0.21415780  0.24364424    -0.20510
C538        C  0.44487867  0.22145987  0.22231068    -0.07080
C539        C  0.44379043  0.20876548  0.19072806     0.13790
C540        C  0.41544673  0.19285972  0.18011634    -0.20560
C541        C  0.38739423  0.19145419  0.19957553    -0.07080
C542        C  0.39191077  0.19788485  0.23332202     0.13780
C543        C  0.36940255  0.18657266  0.25962066    -0.23910
H544        H  0.42181597  0.22133477  0.26876942     0.15070
H545        H  0.41449625  0.18345399  0.15575977     0.15100
C546        C  0.47216103  0.21232534  0.16817157    -0.23860
H547        H  0.38364505  0.17771654  0.28058251     0.05310
H548        H  0.35483917  0.16558122  0.25196840     0.08530
H549        H  0.35384934  0.20683793  0.26797599     0.08530
H550        H  0.49400067  0.20109080  0.17910213     0.08520
H551        H  0.47693217  0.23837413  0.16353418     0.08520
H552        H  0.46754509  0.20035821  0.14459752     0.05290
C553        C  0.83750396  0.91482723  0.36242351    -0.20510
C554        C  0.84963551  0.89053357  0.34150002    -0.07080
C555        C  0.85402676  0.89945282  0.30813278     0.13790
C556        C  0.84047894  0.92822522  0.29668314    -0.20560
C557        C  0.82217856  0.94834770  0.31656227    -0.07080
C558        C  0.82232138  0.94281112  0.35021156     0.13780
C559        C  0.80557280  0.96553618  0.37326895    -0.23910
H560        H  0.83635012  0.91058886  0.38813808     0.15070
H561        H  0.84197798  0.93356001  0.27106977     0.15100
C562        C  0.87000643  0.87922469  0.28217888    -0.23860
H563        H  0.80992235  0.95870554  0.39882488     0.05310
H564        H  0.77902463  0.96502743  0.36917034     0.08530
H565        H  0.81472696  0.99047911  0.36962614     0.08530
H566        H  0.85167657  0.87200333  0.26390449     0.08520
H567        H  0.88204243  0.85730057  0.29062308     0.08520
H568        H  0.88905970  0.89384068  0.27006142     0.05290
C569        C  0.86061987  0.11313905  0.35867255    -0.20510
C570        C  0.84955708  0.14338848  0.34712481    -0.07080
C571        C  0.82721282  0.14067604  0.32091512     0.13790
C572        C  0.80317482  0.11758728  0.32389141    -0.20560
C573        C  0.81313693  0.08705008  0.33383078    -0.07080
C574        C  0.84299040  0.08437795  0.35097045     0.13780
C575        C  0.85548235  0.05192097  0.36140919    -0.23910
H576        H  0.88236579  0.11193513  0.37315191     0.15070
H577        H  0.78264883  0.11931422  0.30755623     0.15100
C578        C  0.84087094  0.14051712  0.28692061    -0.23860
H579        H  0.87910824  0.05411473  0.37403120     0.05310
H580        H  0.85875716  0.03589684  0.34011103     0.08530
H581        H  0.83785133  0.04086020  0.37832428     0.08530
H582        H  0.85697742  0.11913780  0.28385114     0.08520
H583        H  0.85499821  0.16215352  0.28085853     0.08520
H584        H  0.82153035  0.13784083  0.26862824     0.05290
C585        C  0.79397919  0.23491270  0.33202848    -0.20510
C586        C  0.80035508  0.24274924  0.29963444    -0.07080
C587        C  0.83012741  0.22948159  0.28680679     0.13790
C588        C  0.85247204  0.21554412  0.30821762    -0.20560
C589        C  0.84184874  0.20182808  0.33748380    -0.07080
C590        C  0.80931236  0.20917818  0.34666158     0.13780
C591        C  0.78870968  0.19057794  0.37049077    -0.23910
H592        H  0.77503523  0.24565835  0.34591649     0.15070
H593        H  0.87654405  0.21164310  0.29928615     0.15100
C594        C  0.84044921  0.22976310  0.25169177    -0.23860
H595        H  0.76502118  0.18476204  0.35914933     0.05310
H596        H  0.78407882  0.20552661  0.39229585     0.08530
H597        H  0.79893675  0.16697553  0.37730192     0.08530
H598        H  0.86269295  0.24431534  0.24905192     0.08520
H599        H  0.82154268  0.23880937  0.23508340     0.08520
H600        H  0.84719984  0.20504368  0.24368356     0.05290
C601        C  0.24061099  0.20124466  0.42645473    -0.20510
C602        C  0.22033475  0.21800194  0.44775381    -0.07080
C603        C  0.18651686  0.21388834  0.44429149     0.13790
C604        C  0.17438211  0.19648828  0.41742799    -0.20560
C605        C  0.19517265  0.18487700  0.39247568    -0.07080
C606        C  0.22795990  0.18033225  0.40282180     0.13780
C607        C  0.24304518  0.14683734  0.40539630    -0.23910
H608        H  0.26639464  0.20058578  0.43148403     0.15070
H609        H  0.14838787  0.19464888  0.41496988     0.15100
C610        C  0.16314990  0.22793642  0.46848693    -0.23860
H611        H  0.26842945  0.14799792  0.41430174     0.05310
H612        H  0.24474124  0.13335672  0.38277063     0.08530
H613        H  0.22904631  0.13218697  0.42303010     0.08530
H614        H  0.16495182  0.25476632  0.46849975     0.08520
H615        H  0.16878232  0.21852807  0.49295005     0.08520
H616        H  0.13767696  0.22147264  0.46273774     0.05290
C617        C  0.92418657  0.79470480  0.34728719    -0.20510
C618        C  0.94506974  0.81315366  0.32797326    -0.07080
C619        C  0.94070993  0.84715843  0.32738993     0.13790
C620        C  0.91314206  0.86079703  0.34199129    -0.20560
C621        C  0.88732010  0.84110278  0.35289731    -0.07080
C622        C  0.89520452  0.80774875  0.35958279     0.13780
C623        C  0.87220886  0.78328588  0.37433796    -0.23910
H624        H  0.92861920  0.76893262  0.34992050     0.15070
H625        H  0.91031265  0.88681274  0.34095131     0.15100
C626        C  0.96449906  0.86937300  0.31099575    -0.23860
H627        H  0.87016699  0.76178673  0.35831260     0.05310
H628        H  0.84723574  0.79196927  0.37773404     0.08530
H629        H  0.88189001  0.77521649  0.39798925     0.08530
H630        H  0.96437753  0.86519894  0.28455237     0.08520
H631        H  0.98898822  0.86491759  0.32083604     0.08520
H632        H  0.95850858  0.89531300  0.31502123     0.05290
C633        C  0.20859932  0.44720808  0.19090811    -0.20510
C634        C  0.21008527  0.44738665  0.22471163    -0.07080
C635        C  0.19499170  0.42226194  0.24219429     0.13790
C636        C  0.18377005  0.39520303  0.22545898    -0.20560
C637        C  0.18760791  0.39190014  0.19162762    -0.07080
C638        C  0.19631300  0.42034014  0.17389814     0.13780
C639        C  0.19265113  0.42376299  0.13786108    -0.23910
H640        H  0.21811479  0.46779188  0.17769724     0.15070
H641        H  0.17505790  0.37471664  0.23934555     0.15100
C642        C  0.19386184  0.42176461  0.27862519    -0.23860
H643        H  0.21340613  0.41277192  0.12497846     0.05310
H644        H  0.19209100  0.44970282  0.13071564     0.08530
H645        H  0.16943327  0.41307746  0.12971964     0.08530
H646        H  0.17914610  0.44241439  0.28758940     0.08520
H647        H  0.21880284  0.42323306  0.28857568     0.08520
H648        H  0.18265159  0.39919230  0.28803818     0.05290
C649        C  0.38975747  0.34920061  0.30722757    -0.20510
C650        C  0.38458194  0.34240494  0.34045682    -0.07080
C651        C  0.41293768  0.33496242  0.35900120     0.13790
C652        C  0.44165492  0.32586894  0.34277721    -0.20560
C653        C  0.44418951  0.32687278  0.30902058    -0.07080
C654        C  0.41880447  0.34156000  0.29134561     0.13780
C655        C  0.42034547  0.34620399  0.25525041    -0.23910
H656        H  0.36947114  0.35743857  0.29279194     0.15070
H657        H  0.46220497  0.31724682  0.35660836     0.15100
C658        C  0.41495670  0.33815263  0.39519852    -0.23860
H659        H  0.39778155  0.35719238  0.24557937     0.05310
H660        H  0.42366093  0.32244844  0.24305872     0.08530
H661        H  0.44064182  0.36271238  0.24904993     0.08530
H662        H  0.40240592  0.31803923  0.40755826     0.08520
H663        H  0.40523175  0.36203628  0.40278877     0.08520
H664        H  0.44046380  0.33723924  0.40369793     0.05290
C665        C  0.33017557  0.28750741  0.42630562    -0.20510
C666        C  0.32026220  0.31026234  0.44900118    -0.07080
C667        C  0.32756696  0.34322498  0.44366076     0.13790
C668        C  0.34075891  0.35262105  0.41363642    -0.20560
C669        C  0.34454784  0.33020767  0.38786020    -0.07080
C670        C  0.34313122  0.29654397  0.39655673     0.13780
C671        C  0.35678022  0.26914770  0.37685096    -0.23910
H672        H  0.32661348  0.26196672  0.43145902     0.15070
H673        H  0.34539635  0.37813277  0.40966633     0.15100
C674        C  0.32145612  0.36900366  0.46865714    -0.23860
H675        H  0.35896187  0.24647200  0.39113900     0.05310
H676        H  0.38182151  0.27488584  0.36955016     0.08530
H677        H  0.34042437  0.26275430  0.35685838     0.08530
H678        H  0.31242433  0.35898379  0.49178086     0.08520
H679        H  0.30339840  0.38660783  0.45933301     0.08520
H680        H  0.34442111  0.38201892  0.47382170     0.05290
C681        C  0.35476287  0.40428576  0.33646519    -0.20510
C682        C  0.33422015  0.37924692  0.34855847    -0.07080
C683        C  0.30142299  0.39039591  0.35522336     0.13790
C684        C  0.28942063  0.41825230  0.33961675    -0.20560
C685        C  0.30921617  0.43882756  0.32168198    -0.07080
C686        C  0.34284884  0.43279551  0.32193382     0.13780
C687        C  0.36660393  0.45654538  0.30756365    -0.23910
H688        H  0.38075947  0.40177898  0.33741771     0.15070
H689        H  0.26407454  0.42466137  0.34255063     0.15100
C690        C  0.27852047  0.37907292  0.38163853    -0.23860
H691        H  0.39211552  0.44915734  0.31187629     0.05310
H692        H  0.36304039  0.48084697  0.31855583     0.08530
H693        H  0.36321047  0.45803211  0.28105514     0.08530
H694        H  0.28561386  0.35774603  0.39557996     0.08520
H695        H  0.25434618  0.37377035  0.37117487     0.08520
H696        H  0.27531779  0.39898329  0.39943591     0.05290
C697        C  0.29437650  0.31909186  0.33373137    -0.20510
C698        C  0.32799091  0.31906117  0.32940166    -0.07080
C699        C  0.33927827  0.29551538  0.30587681     0.13790
C700        C  0.31679829  0.27936878  0.28618154    -0.20560
C701        C  0.28313748  0.28522738  0.28672667    -0.07080
C702        C  0.27204627  0.30564440  0.31228245     0.13780
C703        C  0.23684760  0.31310669  0.31932304    -0.23910
H704        H  0.28492021  0.32774523  0.35564501     0.15070
H705        H  0.32643954  0.25991176  0.27184571     0.15100
C706        C  0.37289620  0.28066719  0.30247616    -0.23860
H707        H  0.23412325  0.33242815  0.33774453     0.05310
H708        H  0.22447333  0.29179583  0.32969415     0.08530
H709        H  0.22444187  0.32254209  0.29778095     0.08530
H710        H  0.39082799  0.28743692  0.32047781     0.08520
H711        H  0.38266833  0.28583962  0.27803979     0.08520
H712        H  0.37129800  0.25388438  0.30493091     0.05290
C713        C  0.29301776  0.61520170  0.32018079    -0.20510
C714        C  0.31299973  0.58814684  0.31942627    -0.07080
C715        C  0.34294263  0.58951734  0.33565837     0.13790
C716        C  0.35334571  0.61941787  0.34899879    -0.20560
C717        C  0.33674759  0.64864915  0.34291612    -0.07080
C718        C  0.30329828  0.64456860  0.33316075     0.13780
C719        C  0.27589547  0.66837429  0.33875285    -0.23910
H720        H  0.26832034  0.61313194  0.31135786     0.15070
H721        H  0.37421281  0.61995915  0.36455117     0.15100
C722        C  0.36321981  0.55954479  0.33967409    -0.23860
H723        H  0.25558421  0.65604738  0.35137680     0.05310
H724        H  0.26647435  0.67721265  0.31527938     0.08530
H725        H  0.28232831  0.68882098  0.35450367     0.08530
H726        H  0.37007019  0.54988149  0.31559813     0.08520
H727        H  0.34921382  0.54084618  0.35296507     0.08520
H728        H  0.38579038  0.56469531  0.35332531     0.05290
C729        C  0.30415835  0.72219354  0.28042615    -0.20510
C730        C  0.29524586  0.75278613  0.29277831    -0.07080
C731        C  0.31174151  0.76272444  0.32133119     0.13790
C732        C  0.32451690  0.73870966  0.34165160    -0.20560
C733        C  0.33322184  0.70786021  0.32963109    -0.07080
C734        C  0.32676439  0.70256597  0.29609366     0.13780
C735        C  0.34181538  0.67640540  0.27571143    -0.23910
H736        H  0.29604984  0.71454999  0.25677070     0.15070
H737        H  0.32992926  0.74541725  0.36622316     0.15100
C738        C  0.31624170  0.79756622  0.33125391    -0.23860
H739        H  0.35233984  0.68723279  0.25351632     0.05310
H740        H  0.32317969  0.65849182  0.26894079     0.08530
H741        H  0.36140021  0.66361009  0.28782876     0.08530
H742        H  0.29316470  0.80905737  0.33756396     0.08520
H743        H  0.32851200  0.81117648  0.31171029     0.08520
H744        H  0.33190791  0.79963212  0.35294946     0.05290
C745        C  0.23138316  0.64870333  0.21484515    -0.20510
C746        C  0.20007134  0.65225423  0.20069466    -0.07080
C747        C  0.18422595  0.62241344  0.19267879     0.13790
C748        C  0.19493553  0.59311167  0.20735252    -0.20560
C749        C  0.22479176  0.59164866  0.22365410    -0.07080
C750        C  0.24451693  0.61911123  0.22366586     0.13780
C751        C  0.28008754  0.61739595  0.23176511    -0.23910
H752        H  0.24761146  0.66905794  0.21722783     0.15070
H753        H  0.18127693  0.57092894  0.20409812     0.15100
C754        C  0.15885551  0.62004510  0.16654135    -0.23860
H755        H  0.29202302  0.64128985  0.22917035     0.05310
H756        H  0.29252896  0.60072966  0.21475973     0.08530
H757        H  0.28348224  0.60860203  0.25664742     0.08530
H758        H  0.16895784  0.62939359  0.14355888     0.08520
H759        H  0.13643626  0.63330525  0.17233926     0.08520
H760        H  0.15168641  0.59446918  0.16219308     0.05290
C761        C  0.23179753  0.68329116  0.14567589    -0.20510
C762        C  0.19885726  0.68959300  0.15318626    -0.07080
C763        C  0.17901841  0.69901529  0.12641661     0.13790
C764        C  0.19408603  0.71156863  0.09837226    -0.20560
C765        C  0.22783727  0.70988099  0.09386812    -0.07080
C766        C  0.24622168  0.69246913  0.11665332     0.13780
C767        C  0.28174376  0.68518801  0.11204119    -0.23910
H768        H  0.24789748  0.67389347  0.16363457     0.15070
H769        H  0.17924991  0.72222543  0.07958268     0.15100
C770        C  0.14266950  0.69582895  0.12512756    -0.23860
H771        H  0.29234168  0.67187409  0.13279734     0.05310
H772        H  0.29529617  0.70807078  0.10943061     0.08530
H773        H  0.28516612  0.66987670  0.09026231     0.08530
H774        H  0.13119845  0.72011120  0.12389212     0.08520
H775        H  0.13233134  0.68197031  0.14531078     0.08520
H776        H  0.13590941  0.68220543  0.10300437     0.05290
C777        C  0.13194133  0.67813590  0.21592407    -0.20510
C778        C  0.15325204  0.69866838  0.19843225    -0.07080
C779        C  0.14203242  0.73153758  0.19391601     0.13790
C780        C  0.11320414  0.74223355  0.20851980    -0.20560
C781        C  0.09378002  0.72206576  0.22739836    -0.07080
C782        C  0.10289446  0.68915814  0.23028902     0.13780
C783        C  0.08243275  0.66525143  0.24878702    -0.23910
H784        H  0.13872947  0.65351910  0.22102776     0.15070
H785        H  0.10628742  0.76745350  0.20574760     0.15100
C786        C  0.15929790  0.75775337  0.17519589    -0.23860
H787        H  0.09199463  0.64015939  0.24680753     0.05310
H788        H  0.05734937  0.66522714  0.23910641     0.08530
H789        H  0.08213479  0.67166491  0.27479333     0.08530
H790        H  0.14213694  0.76926422  0.15802681     0.08520
H791        H  0.17947432  0.74937346  0.16043630     0.08520
H792        H  0.16822517  0.77666211  0.19209480     0.05290
C793        C  0.22895396  0.73659876  0.19673282    -0.20510
C794        C  0.20938743  0.71233809  0.21106540    -0.07080
C795        C  0.20973724  0.71094980  0.24560992     0.13790
C796        C  0.23105627  0.73046675  0.26277560    -0.20560
C797        C  0.25082154  0.75434149  0.24872747    -0.07080
C798        C  0.24700425  0.75917106  0.21470369     0.13780
C799        C  0.25787106  0.78891231  0.19620958    -0.23910
H800        H  0.22948427  0.73951466  0.17091009     0.15070
H801        H  0.23162730  0.72715483  0.28843272     0.15100
C802        C  0.19064226  0.68781776  0.26669052    -0.23860
H803        H  0.24360631  0.79207121  0.17368951     0.05310
H804        H  0.28336114  0.78657767  0.18829848     0.08530
H805        H  0.25351907  0.81142183  0.21008550     0.08530
H806        H  0.20745440  0.67470637  0.28307497     0.08520
H807        H  0.17750602  0.66877754  0.25405942     0.08520
H808        H  0.17314470  0.70176505  0.28162283     0.05290
C809        C  0.30175314  0.69785375  0.42752158    -0.20510
C810        C  0.31755717  0.72464727  0.44106027    -0.07080
C811        C  0.35046370  0.72963722  0.43226283     0.13790
C812        C  0.36442787  0.71054351  0.40746070    -0.20560
C813        C  0.34576835  0.68859601  0.38888583    -0.07080
C814        C  0.31698482  0.67772689  0.40483782     0.13780
C815        C  0.30966215  0.64205509  0.40929488    -0.23910
H816        H  0.27853708  0.69023654  0.43714303     0.15070
H817        H  0.38985957  0.71364895  0.40243646     0.15100
C818        C  0.37120574  0.75485332  0.44851338    -0.23860
H819        H  0.30183462  0.63699877  0.43448545     0.05310
H820        H  0.33165385  0.62710668  0.40605802     0.08530
H821        H  0.28973032  0.63382540  0.39352563     0.08530
H822        H  0.37240635  0.75000288  0.47483938     0.08520
H823        H  0.36100221  0.77934778  0.44412762     0.08520
H824        H  0.39638691  0.75481197  0.43902118     0.05290
C825        C  0.33860387  0.73979290  0.60351489    -0.20510
C826        C  0.31896687  0.72058216  0.58360992    -0.07080
C827        C  0.32066023  0.68633182  0.58823659     0.13790
C828        C  0.33738388  0.67403012  0.61592904    -0.20560
C829        C  0.34732061  0.69586590  0.64021775    -0.07080
C830        C  0.35870257  0.72488932  0.62599774     0.13780
C831        C  0.39386563  0.72637923  0.61534470    -0.23910
H832        H  0.34319415  0.76491292  0.59742348     0.15070
H833        H  0.33970340  0.64824525  0.61961848     0.15100
C834        C  0.30541988  0.66325481  0.56467935    -0.23860
H835        H  0.39656880  0.71390035  0.59169790     0.05310
H836        H  0.41076732  0.71411918  0.63198737     0.08530
H837        H  0.40179885  0.75190939  0.61229547     0.08530
H838        H  0.31554393  0.66743850  0.54019592     0.08520
H839        H  0.27879490  0.66694814  0.56421958     0.08520
H840        H  0.31012236  0.63765194  0.57147817     0.05290
C841        C  0.34124212  0.71935944  0.73189268    -0.20510
C842        C  0.32762435  0.71052133  0.70153632    -0.07080
C843        C  0.29500418  0.72140514  0.69692528     0.13790
C844        C  0.27947854  0.73906937  0.72168067    -0.20560
C845        C  0.29649495  0.75318043  0.74786767    -0.07080
C846        C  0.33013995  0.74577660  0.74942037     0.13780
C847        C  0.35688951  0.76593278  0.76460140    -0.23910
H848        H  0.36437252  0.71009134  0.73970665     0.15070
H849        H  0.25358941  0.74295671  0.71975242     0.15100
C850        C  0.27405748  0.71395475  0.66846956    -0.23860
H851        H  0.37908544  0.76550587  0.74972692     0.05310
H852        H  0.36535845  0.75514463  0.78751867     0.08530
H853        H  0.35075979  0.79192557  0.76641856     0.08530
H854        H  0.26043933  0.69143102  0.67332517     0.08520
H855        H  0.28778124  0.71428894  0.64567886     0.08520
H856        H  0.25481997  0.73250547  0.66559469     0.05290
C857        C  0.30764709  0.60254433  0.69459436    -0.20510
C858        C  0.31910078  0.59500092  0.72531245    -0.07080
C859        C  0.34250420  0.61587058  0.73872674     0.13790
C860        C  0.35294905  0.64339643  0.72121340    -0.20560
C861        C  0.34037742  0.65311376  0.69045844    -0.07080
C862        C  0.31449751  0.63202894  0.67887717     0.13780
C863        C  0.28936508  0.63786120  0.65296907    -0.23910
H864        H  0.28976985  0.58651372  0.68388267     0.15070
H865        H  0.37006956  0.65852183  0.73355829     0.15100
C866        C  0.35604572  0.61022152  0.77204136    -0.23860
H867        H  0.26466506  0.63480876  0.66330597     0.05310
H868        H  0.29217801  0.61966874  0.63336294     0.08530
H869        H  0.28895163  0.66158726  0.64224541     0.08530
H870        H  0.36830795  0.58629149  0.77296435     0.08520
H871        H  0.33620190  0.61112606  0.79014045     0.08520
H872        H  0.37415007  0.62889641  0.77892307     0.05290
C873        C  0.36219574  0.33241848  0.62657282    -0.20510
C874        C  0.34293679  0.35079682  0.64829237    -0.07080
C875        C  0.30963650  0.35598237  0.63851611     0.13790
C876        C  0.29726897  0.34060067  0.61102986    -0.20560
C877        C  0.31587910  0.31994056  0.59199503    -0.07080
C878        C  0.34928464  0.31708386  0.59892971     0.13780
C879        C  0.37150479  0.29700050  0.57804524    -0.23910
H880        H  0.38652367  0.32595998  0.63275927     0.15070
H881        H  0.27175908  0.34356247  0.60538269     0.15100
C882        C  0.28416923  0.37506904  0.65667692    -0.23860
H883        H  0.39720448  0.29920130  0.58568310     0.05310
H884        H  0.36984836  0.30525555  0.55259600     0.08530
H885        H  0.36484780  0.27101253  0.57969686     0.08530
H886        H  0.27263085  0.39283512  0.64015513     0.08520
H887        H  0.29298813  0.38907427  0.67709709     0.08520
H888        H  0.26507282  0.35837598  0.66562521     0.05290
C889        C  0.36293577  0.40313379  0.72631742    -0.20510
C890        C  0.35504267  0.39538829  0.69377203    -0.07080
C891        C  0.34287576  0.42207868  0.67530445     0.13790
C892        C  0.32820822  0.44845385  0.69168215    -0.20560
C893        C  0.32919800  0.45138986  0.72554051    -0.07080
C894        C  0.34944977  0.42979870  0.74258529     0.13780
C895        C  0.35502308  0.43272269  0.77848616    -0.23910
H896        H  0.37620092  0.38645487  0.74100195     0.15070
H897        H  0.31579695  0.46690369  0.67776367     0.15100
C898        C  0.34468656  0.42483044  0.63904577    -0.23860
H899        H  0.37083805  0.41311083  0.78790650     0.05310
H900        H  0.33156223  0.43112684  0.79153707     0.08530
H901        H  0.36712724  0.45610183  0.78397305     0.08530
H902        H  0.31999410  0.42630247  0.62861639     0.08520
H903        H  0.35803357  0.40505814  0.62717933     0.08520
H904        H  0.35771224  0.44750490  0.63273625     0.05290
C905        C  0.30861536  0.28674113  0.72441797    -0.20510
C906        C  0.28771845  0.30236565  0.74643326    -0.07080
C907        C  0.29000372  0.33710278  0.74822347     0.13790
C908        C  0.30864088  0.35354580  0.72549478    -0.20560
C909        C  0.32924856  0.33799430  0.70338686    -0.07080
C910        C  0.32818908  0.30326188  0.70256853     0.13780
C911        C  0.34662055  0.28213900  0.67890495    -0.23910
H912        H  0.30848135  0.26046660  0.72360969     0.15070
H913        H  0.30755319  0.37950093  0.72629391     0.15100
C914        C  0.27798257  0.35861122  0.77531375    -0.23860
H915        H  0.34523560  0.25602894  0.68526495     0.05310
H916        H  0.37274373  0.28778685  0.67799128     0.08530
H917        H  0.33534618  0.28402307  0.65481193     0.08530
H918        H  0.29023523  0.35113702  0.79765820     0.08520
H919        H  0.25144229  0.35945181  0.77734106     0.08520
H920        H  0.28489586  0.38447639  0.77243450     0.05290
C921        C  0.17479572  0.21909160  0.63729298    -0.20510
C922        C  0.18934749  0.19086221  0.65066683    -0.07080
C923        C  0.21288123  0.17500785  0.63042044     0.13790
C924        C  0.22425745  0.19063761  0.60237836    -0.20560
C925        C  0.21346505  0.22138958  0.59286620    -0.07080
C926        C  0.18692179  0.23491706  0.60970264     0.13780
C927        C  0.17195532  0.26681586  0.60004827    -0.23910
H928        H  0.15509199  0.23083723  0.64971963     0.15070
H929        H  0.24317510  0.17906026  0.58833623     0.15100
C930        C  0.22718492  0.14191330  0.63649758    -0.23860
H931        H  0.15127891  0.27357275  0.61586837     0.05310
H932        H  0.16264922  0.26521953  0.57496547     0.08530
H933        H  0.19021987  0.28647276  0.60194794     0.08530
H934        H  0.20806310  0.12398639  0.64185711     0.08520
H935        H  0.24601646  0.14311652  0.65531262     0.08520
H936        H  0.23980535  0.13225542  0.61482846     0.05290
C937        C  0.11511372  0.22715011  0.73604721    -0.20510
C938        C  0.08789011  0.20942064  0.72840861    -0.07080
C939        C  0.08945572  0.18775258  0.70198438     0.13790
C940        C  0.12013313  0.18115058  0.68752402    -0.20560
C941        C  0.14890215  0.19634791  0.69846435    -0.07080
C942        C  0.14218557  0.22541205  0.71651218     0.13780
C943        C  0.15749311  0.25806559  0.71138213    -0.23910
H944        H  0.11284051  0.24745475  0.75265442     0.15070
H945        H  0.12069502  0.16679723  0.66592768     0.15100
C946        C  0.05909944  0.17292695  0.68852308    -0.23860
H947        H  0.13861074  0.27581353  0.70405903     0.05310
H948        H  0.17573355  0.25910504  0.69206791     0.08530
H949        H  0.16719455  0.26602264  0.73489649     0.08530
H950        H  0.04247934  0.19236853  0.68019653     0.08520
H951        H  0.04682887  0.15846185  0.70751348     0.08520
H952        H  0.06445220  0.15675848  0.66774052     0.05290
C953        C  0.19209319  0.09187935  0.71467628    -0.20510
C954        C  0.22277520  0.09185904  0.72900659    -0.07080
C955        C  0.24140206  0.12011383  0.72775070     0.13790
C956        C  0.22902484  0.14752019  0.71266101    -0.20560
C957        C  0.19678338  0.15007146  0.69999475    -0.07080
C958        C  0.17924229  0.11988484  0.69928058     0.13780
C959        C  0.14987879  0.11409480  0.67886266    -0.23910
H960        H  0.17857795  0.06934974  0.71437946     0.15070
H961        H  0.24615420  0.16711537  0.71012935     0.15100
C962        C  0.27449892  0.12203406  0.74322893    -0.23860
H963        H  0.14773828  0.08812788  0.67204477     0.05310
H964        H  0.15207552  0.12715511  0.65561506     0.08530
H965        H  0.12768668  0.11986191  0.69276852     0.08530
H966        H  0.29139243  0.10468894  0.73157410     0.08520
H967        H  0.27225414  0.11642417  0.76930171     0.08520
H968        H  0.28541160  0.14656132  0.74122512     0.05290
C969        C  0.22253596  0.23590238  0.75764588    -0.20510
C970        C  0.24482534  0.25674020  0.74297595    -0.07080
C971        C  0.24467960  0.25588613  0.70802772     0.13790
C972        C  0.22970337  0.22998439  0.69183157    -0.20560
C973        C  0.20756825  0.20916031  0.70744733    -0.07080
C974        C  0.20620884  0.21110638  0.74187647     0.13780
C975        C  0.18631936  0.18907019  0.76359495    -0.23910
H976        H  0.21418359  0.24139253  0.78125952     0.15070
H977        H  0.23258090  0.22913706  0.66596412     0.15100
C978        C  0.25159533  0.28419643  0.68559326    -0.23860
H979        H  0.20285666  0.17569279  0.77995693     0.05310
H980        H  0.17144924  0.17085525  0.75100332     0.08530
H981        H  0.16945570  0.20380415  0.77852047     0.08530
H982        H  0.27287234  0.27881635  0.67009264     0.08520
H983        H  0.25434363  0.30773715  0.69778019     0.08520
H984        H  0.23057180  0.28803339  0.66925574     0.05290
C985        C  0.44724810  0.33028849  0.69049561    -0.20510
C986        C  0.44703536  0.31562790  0.72112032    -0.07080
C987        C  0.41986312  0.31996959  0.74070461     0.13790
C988        C  0.39126857  0.33104786  0.72704877    -0.20560
C989        C  0.38922099  0.34416402  0.69515382    -0.07080
C990        C  0.41975443  0.34757079  0.67900688     0.13780
C991        C  0.42526376  0.37058423  0.65144540    -0.23910
H992        H  0.46961591  0.33058145  0.67676775     0.15070
H993        H  0.37083150  0.33189876  0.74332151     0.15100
C994        C  0.42145319  0.31497687  0.77673515    -0.23860
H995        H  0.44410366  0.38849052  0.65835913     0.05310
H996        H  0.40325163  0.38425803  0.64532627     0.08530
H997        H  0.43381078  0.35718154  0.62979697     0.08530
H998        H  0.43851378  0.33275261  0.78745203     0.08520
H999        H  0.43028028  0.29021328  0.78216632     0.08520
H1000       H  0.39766679  0.31911124  0.78857385     0.05290
C1001       C  0.63176802  0.31139111  0.66771858    -0.20510
C1002       C  0.64264583  0.34172977  0.67920797    -0.07080
C1003       C  0.61773691  0.36212072  0.69162184     0.13790
C1004       C  0.59103972  0.34741761  0.70687990    -0.20560
C1005       C  0.58565700  0.31388818  0.70391405    -0.07080
C1006       C  0.60353301  0.29696342  0.67999646     0.13780
C1007       C  0.59554309  0.26285388  0.66956781    -0.23910
H1008       H  0.64638121  0.29748409  0.65124685     0.15070
H1009       H  0.57438095  0.36217071  0.72081576     0.15100
C1010       C  0.61670650  0.39829507  0.68697832    -0.23860
H1011       H  0.61191555  0.25425837  0.65005627     0.05310
H1012       H  0.57039016  0.26192048  0.66013717     0.08530
H1013       H  0.59832933  0.24589138  0.69015288     0.08530
H1014       H  0.63547887  0.40694238  0.66995150     0.08520
H1015       H  0.61869725  0.41103177  0.71046398     0.08520
H1016       H  0.59312168  0.40500388  0.67595798     0.05290
C1017       C  0.73397268  0.33782553  0.70226311    -0.20510
C1018       C  0.70060435  0.32999341  0.70429711    -0.07080
C1019       C  0.69179917  0.30475385  0.72630815     0.13790
C1020       C  0.71686270  0.28788129  0.74125705    -0.20560
C1021       C  0.74815203  0.30101533  0.74518219    -0.07080
C1022       C  0.75723195  0.32546596  0.72271028     0.13780
C1023       C  0.78997623  0.34094490  0.71856917    -0.23910
H1024       H  0.74222407  0.35476345  0.68404437     0.15070
H1025       H  0.71106837  0.26430513  0.75091606     0.15100
C1026       C  0.65856476  0.29066194  0.73255316    -0.23860
H1027       H  0.78732297  0.36762661  0.71581425     0.05310
H1028       H  0.80168803  0.33146183  0.69636867     0.08530
H1029       H  0.80566112  0.33843358  0.73930222     0.08530
H1030       H  0.65220869  0.27234567  0.71417154     0.08520
H1031       H  0.63966065  0.30898226  0.73534647     0.08520
H1032       H  0.65803546  0.27754068  0.75598793     0.05290
C1033       C  0.70780923  0.40645082  0.67187191    -0.20510
C1034       C  0.68823941  0.38559004  0.69106933    -0.07080
C1035       C  0.68390546  0.39607119  0.72419956     0.13790
C1036       C  0.69959411  0.42379078  0.73617126    -0.20560
C1037       C  0.72087480  0.44223159  0.71763516    -0.07080
C1038       C  0.72415432  0.43393990  0.68456248     0.13780
C1039       C  0.74530318  0.45357864  0.66227082    -0.23910
H1040       H  0.71344356  0.40016089  0.64738648     0.15070
H1041       H  0.69641889  0.42999086  0.76143927     0.15100
C1042       C  0.66521639  0.37816532  0.74979090    -0.23860
H1043       H  0.74369053  0.44501504  0.63689990     0.05310
H1044       H  0.77103523  0.45155624  0.66972883     0.08530
H1045       H  0.73759668  0.47936362  0.66277735     0.08530
H1046       H  0.65272766  0.35704198  0.74079732     0.08520
H1047       H  0.64656402  0.39434877  0.76049577     0.08520
H1048       H  0.68188769  0.37017294  0.76922888     0.05290
C1049       C  0.68721327  0.63644751  0.72323267    -0.20510
C1050       C  0.69563676  0.64743084  0.69176672    -0.07080
C1051       C  0.71466671  0.62468265  0.67298434     0.13790
C1052       C  0.72762353  0.59654903  0.68792153    -0.20560
C1053       C  0.72203826  0.58887703  0.72036023    -0.07080
C1054       C  0.70029828  0.60875222  0.73783605     0.13780
C1055       C  0.69186954  0.60260329  0.77281731    -0.23910
H1056       H  0.67207018  0.65140062  0.73828739     0.15070
H1057       H  0.74304805  0.58039496  0.67412137     0.15100
C1058       C  0.72244462  0.62773997  0.63753261    -0.23860
H1059       H  0.67540680  0.62139093  0.78285942     0.05310
H1060       H  0.71421888  0.60286307  0.78772702     0.08530
H1061       H  0.67923050  0.57898934  0.77521862     0.08530
H1062       H  0.73678288  0.64966334  0.63226619     0.08520
H1063       H  0.69981201  0.62643888  0.62328724     0.08520
H1064       H  0.73751479  0.60733869  0.62851322     0.05290
C1065       C  0.76085336  0.72510147  0.73205714    -0.20510
C1066       C  0.74502455  0.73976434  0.75857029    -0.07080
C1067       C  0.71544034  0.72430516  0.76745674     0.13790
C1068       C  0.69680674  0.70995478  0.74300105    -0.20560
C1069       C  0.71116565  0.70000576  0.71361674    -0.07080
C1070       C  0.74577591  0.70118142  0.71329077     0.13780
C1071       C  0.76732780  0.67920467  0.69357531    -0.23910
H1072       H  0.78477533  0.73255959  0.72476492     0.15070
H1073       H  0.67170761  0.70458302  0.74823964     0.15100
C1074       C  0.70318308  0.72083620  0.80140903    -0.23860
H1075       H  0.79335111  0.68503241  0.69723157     0.05310
H1076       H  0.76285867  0.68102435  0.66751528     0.08530
H1077       H  0.76411784  0.65390316  0.70179066     0.08530
H1078       H  0.72102624  0.72909339  0.81895916     0.08520
H1079       H  0.69909053  0.69474624  0.80657309     0.08520
H1080       H  0.67991377  0.73381136  0.80490216     0.05290
C1081       C  0.84470488  0.82869863  0.44403143    -0.20510
C1082       C  0.81206973  0.81929984  0.44544132    -0.07080
C1083       C  0.79114910  0.82899802  0.42060197     0.13790
C1084       C  0.80385819  0.84474747  0.39378096    -0.20560
C1085       C  0.83737653  0.84997044  0.38887201    -0.07080
C1086       C  0.85699843  0.84592165  0.41713561     0.13780
C1087       C  0.88981356  0.86136605  0.42095265    -0.23910
H1088       H  0.86033484  0.82371909  0.46444780     0.15070
H1089       H  0.78622835  0.85184974  0.37697337     0.15100
C1090       C  0.75525020  0.82121896  0.42102930    -0.23860
H1091       H  0.89074339  0.87472002  0.44422132     0.05310
H1092       H  0.89464363  0.87959760  0.40196366     0.08530
H1093       H  0.90898540  0.84248339  0.42100155     0.08530
H1094       H  0.74310564  0.83443206  0.44098788     0.08520
H1095       H  0.75166162  0.79471941  0.42397468     0.08520
H1096       H  0.74290240  0.82841905  0.39832390     0.05290
C1097       C  0.73898630  0.72850810  0.61723439    -0.20510
C1098       C  0.72648336  0.71445391  0.58967765    -0.07080
C1099       C  0.69871757  0.69465543  0.59221443     0.13790
C1100       C  0.68656320  0.68668911  0.62330711    -0.20560
C1101       C  0.70166769  0.69820766  0.65185444    -0.07080
C1102       C  0.72431683  0.72416522  0.64702580     0.13780
C1103       C  0.72933226  0.75260936  0.66895610    -0.23910
H1104       H  0.75722710  0.74730636  0.61471703     0.15070
H1105       H  0.66582492  0.67074196  0.62543386     0.15100
C1106       C  0.68236537  0.68192893  0.56242630    -0.23860
H1107       H  0.75514503  0.75315720  0.67594818     0.05310
H1108       H  0.71364608  0.75325072  0.69031543     0.08530
H1109       H  0.72338178  0.77519005  0.65566149     0.08530
H1110       H  0.69976804  0.66709436  0.54826448     0.08520
H1111       H  0.67388229  0.70248965  0.54736478     0.08520
H1112       H  0.66113006  0.66658227  0.56854542     0.05290
C1113       C  0.77849963  0.81512864  0.30895007    -0.20510
C1114       C  0.79268674  0.79164807  0.28865493    -0.07080
C1115       C  0.82730598  0.78821115  0.29083840     0.13790
C1116       C  0.84474094  0.81056309  0.30887288    -0.20560
C1117       C  0.83045840  0.83491228  0.32806080    -0.07080
C1118       C  0.79688052  0.84024038  0.32198482     0.13780
C1119       C  0.78065170  0.87330005  0.32168237    -0.23910
H1120       H  0.75236371  0.81780525  0.30879857     0.15070
H1121       H  0.87057704  0.80832432  0.30687309     0.15100
C1122       C  0.84879523  0.76103359  0.27852089    -0.23860
H1123       H  0.78821615  0.88650591  0.29968003     0.05310
H1124       H  0.78555165  0.88856244  0.34280568     0.08530
H1125       H  0.75390395  0.87103067  0.32099850     0.08530
H1126       H  0.86499889  0.77019008  0.25914748     0.08520
H1127       H  0.83647429  0.73943449  0.27028661     0.08520
H1128       H  0.86436134  0.75193936  0.29844174     0.05290
C1129       C  0.71013599  0.67869347  0.39935769    -0.20510
C1130       C  0.68912476  0.69896167  0.38101473    -0.07080
C1131       C  0.68310144  0.73072900  0.39500680     0.13790
C1132       C  0.69686042  0.73937335  0.42484898    -0.20560
C1133       C  0.71905905  0.71983565  0.44101790    -0.07080
C1134       C  0.72499426  0.68852190  0.42850375     0.13780
C1135       C  0.74753905  0.66517950  0.44524500    -0.23910
H1136       H  0.71855110  0.65608537  0.38981526     0.15070
H1137       H  0.69237145  0.76341805  0.43441198     0.15100
C1138       C  0.66597173  0.75865397  0.37844323    -0.23860
H1139       H  0.74765479  0.64097179  0.43349469     0.05310
H1140       H  0.73970642  0.66177004  0.47066786     0.08530
H1141       H  0.77274081  0.67449742  0.44450454     0.08530
H1142       H  0.66157419  0.77936842  0.39502315     0.08520
H1143       H  0.64175237  0.75243939  0.36985985     0.08520
H1144       H  0.68129275  0.76892901  0.35921855     0.05290
C1145       C  0.73323641  0.71461548  0.33147030    -0.20510
C1146       C  0.69937920  0.71648301  0.32626270    -0.07080
C1147       C  0.68827327  0.74187273  0.30558471     0.13790
C1148       C  0.71130489  0.76218957  0.29088751    -0.20560
C1149       C  0.74503879  0.75530796  0.29071246    -0.07080
C1150       C  0.75587998  0.73315364  0.31487295     0.13780
C1151       C  0.79083657  0.72737351  0.32409331    -0.23910
H1152       H  0.74247600  0.69628378  0.34767226     0.15070
H1153       H  0.70199761  0.78290783  0.27814531     0.15100
C1154       C  0.65338248  0.74813075  0.29667644    -0.23860
H1155       H  0.79346013  0.70919947  0.34367661     0.05310
H1156       H  0.80189334  0.74967398  0.33394371     0.08530
H1157       H  0.80445503  0.71725260  0.30370150     0.08530
H1158       H  0.63777612  0.75068310  0.31797746     0.08520
H1159       H  0.64458893  0.72887016  0.28051621     0.08520
H1160       H  0.65033233  0.77095731  0.28281025     0.05290
C1161       C  0.71799332  0.62297158  0.28749981    -0.20510
C1162       C  0.71768177  0.59596980  0.30702177    -0.07080
C1163       C  0.70249643  0.59760771  0.33745740     0.13790
C1164       C  0.68928341  0.62740362  0.34812465    -0.20560
C1165       C  0.69356782  0.65652974  0.33052861    -0.07080
C1166       C  0.70483611  0.65239695  0.29739193     0.13780
C1167       C  0.70062868  0.67622358  0.26978789    -0.23910
H1168       H  0.72835783  0.62065919  0.26351040     0.15070
H1169       H  0.67608711  0.62808513  0.37073107     0.15100
C1170       C  0.69942499  0.56786140  0.35808585    -0.23860
H1171       H  0.70657288  0.66564061  0.24582275     0.05310
H1172       H  0.71709529  0.69640848  0.27246905     0.08530
H1173       H  0.67574579  0.68536333  0.26738065     0.08530
H1174       H  0.72384325  0.55813028  0.36377484     0.08520
H1175       H  0.68527282  0.54926899  0.34483852     0.08520
H1176       H  0.68679701  0.57314680  0.38118590     0.05290
C1177       C  0.65007834  0.32310210  0.30769546    -0.20510
C1178       C  0.65186197  0.34454498  0.33447074    -0.07080
C1179       C  0.62159589  0.35867889  0.34458969     0.13790
C1180       C  0.59213453  0.34822361  0.33017923    -0.20560
C1181       C  0.59233141  0.32852241  0.30261217    -0.07080
C1182       C  0.62194937  0.31891853  0.28980198     0.13780
C1183       C  0.62404015  0.30597379  0.25600714    -0.23910
H1184       H  0.67114470  0.31198438  0.29739344     0.15070
H1185       H  0.56903085  0.35602955  0.33990334     0.15100
C1186       C  0.61934500  0.38305543  0.37158358    -0.23860
H1187       H  0.64949464  0.30212631  0.24822753     0.05310
H1188       H  0.61342441  0.32404933  0.23926068     0.08530
H1189       H  0.61028194  0.28305665  0.25431873     0.08530
H1190       H  0.63116953  0.40592024  0.36432352     0.08520
H1191       H  0.63027836  0.37352680  0.39402786     0.08520
H1192       H  0.59376863  0.38920491  0.37728283     0.05290
C1193       C  0.71016794  0.42464431  0.29074583    -0.20510
C1194       C  0.71793500  0.44927716  0.31215179    -0.07080
C1195       C  0.70815820  0.44649135  0.34458147     0.13790
C1196       C  0.69322625  0.41747912  0.35502097    -0.20560
C1197       C  0.69137376  0.38965560  0.33483200    -0.07080
C1198       C  0.69631190  0.39567577  0.30091683     0.13780
C1199       C  0.68758276  0.37301659  0.27400558    -0.23910
H1200       H  0.71590038  0.42788007  0.26537279     0.15070
H1201       H  0.68467600  0.41624330  0.37966667     0.15100
C1202       C  0.71320393  0.47387541  0.36795542    -0.23860
H1203       H  0.69595561  0.38138196  0.24991713     0.05310
H1204       H  0.66090897  0.37130823  0.27208758     0.08530
H1205       H  0.69938744  0.34977026  0.27785439     0.08530
H1206       H  0.70021917  0.49565551  0.35922160     0.08520
H1207       H  0.73943973  0.47935772  0.37008932     0.08520
H1208       H  0.70388362  0.46783761  0.39237757     0.05290
C1209       C  0.70874891  0.29749259  0.33939979    -0.20510
C1210       C  0.71413836  0.33126426  0.33735294    -0.07080
C1211       C  0.74656625  0.34045140  0.32877056     0.13790
C1212       C  0.76639620  0.31765084  0.31335709    -0.20560
C1213       C  0.75606210  0.28590906  0.30594775    -0.07080
C1214       C  0.72843346  0.27479217  0.32382834     0.13780
C1215       C  0.71778228  0.23970668  0.32708665    -0.23910
H1216       H  0.68672979  0.28860293  0.35016202     0.15070
H1217       H  0.79063439  0.32509521  0.30723821     0.15100
C1218       C  0.76384409  0.37124585  0.33903946    -0.23860
H1219       H  0.71794529  0.23283053  0.35299838     0.05310
H1220       H  0.73341012  0.22224680  0.31415240     0.08530
H1221       H  0.69267757  0.23670270  0.31820592     0.08530
H1222       H  0.76950113  0.37012312  0.36506801     0.08520
H1223       H  0.75123107  0.39369238  0.33295495     0.08520
H1224       H  0.78777759  0.37387574  0.32703067     0.05290
C1225       C  0.59626517  0.19564204  0.21636763    -0.20510
C1226       C  0.58949659  0.22842015  0.21018635    -0.07080
C1227       C  0.60952734  0.24461904  0.18745563     0.13790
C1228       C  0.63968281  0.23088049  0.17920979    -0.20560
C1229       C  0.64971889  0.20015236  0.19092267    -0.07080
C1230       C  0.62416143  0.18045868  0.20358248     0.13780
C1231       C  0.62238457  0.14416763  0.19983494    -0.23910
H1232       H  0.57881598  0.18131870  0.22974936     0.15070
H1233       H  0.65615369  0.24556992  0.16526673     0.15100
C1234       C  0.60088559  0.27715014  0.17329493    -0.23860
H1235       H  0.59882024  0.13761681  0.18865254     0.05310
H1236       H  0.62365829  0.13213435  0.22374774     0.08530
H1237       H  0.64100349  0.13451612  0.18318730     0.08530
H1238       H  0.59902614  0.29572942  0.19246089     0.08520
H1239       H  0.57749468  0.27530046  0.16021345     0.08520
H1240       H  0.61938719  0.28565798  0.15575601     0.05290
C1241       C  0.72810377  0.10496071  0.19842828    -0.20510
C1242       C  0.72119329  0.09804308  0.23070287    -0.07080
C1243       C  0.69979274  0.11868668  0.24742295     0.13790
C1244       C  0.68720287  0.14611375  0.23177147    -0.20560
C1245       C  0.69527524  0.15509495  0.19958633    -0.07080
C1246       C  0.71625107  0.13278644  0.18255452     0.13780
C1247       C  0.72869683  0.13692163  0.14857003    -0.23910
H1248       H  0.74406391  0.08850975  0.18559445     0.15070
H1249       H  0.67225789  0.16221576  0.24588446     0.15100
C1250       C  0.69156458  0.11339973  0.28249463    -0.23860
H1251       H  0.74626545  0.11777252  0.14152839     0.05310
H1252       H  0.74228954  0.15987874  0.14596483     0.08530
H1253       H  0.70852369  0.13422011  0.13123916     0.08530
H1254       H  0.71411097  0.11304386  0.29710995     0.08520
H1255       H  0.67835254  0.09016701  0.28540476     0.08520
H1256       H  0.67578180  0.13292665  0.29221028     0.05290
C1257       C  0.74041967  0.23093560  0.12396046    -0.20510
C1258       C  0.72917835  0.21624024  0.09613866    -0.07080
C1259       C  0.70088872  0.19704603  0.09738842     0.13790
C1260       C  0.68673581  0.19023013  0.12781859    -0.20560
C1261       C  0.69984169  0.20331378  0.15660664    -0.07080
C1262       C  0.72273269  0.22908282  0.15224234     0.13780
C1263       C  0.72445002  0.25956537  0.17217028    -0.23910
H1264       H  0.75975652  0.24876301  0.12219286     0.15070
H1265       H  0.66632235  0.17378945  0.12931925     0.15100
C1266       C  0.68637894  0.18342967  0.06702470    -0.23860
H1267       H  0.72329356  0.28114596  0.15633923     0.05310
H1268       H  0.74787338  0.26015332  0.18525212     0.08530
H1269       H  0.70340071  0.26298549  0.18816405     0.08530
H1270       H  0.70447462  0.16788813  0.05458416     0.08520
H1271       H  0.67919916  0.20350953  0.05070217     0.08520
H1272       H  0.66456539  0.16856762  0.07225204     0.05290
C1273       C  0.74091779  0.20331356  0.21786421    -0.20510
C1274       C  0.70737017  0.21014490  0.21694683    -0.07080
C1275       C  0.69624585  0.23221041  0.24095465     0.13790
C1276       C  0.71905261  0.25231830  0.25621136    -0.20560
C1277       C  0.75228369  0.24379596  0.25909583    -0.07080
C1278       C  0.76027290  0.21395209  0.24335656     0.13780
C1279       C  0.77791410  0.18601812  0.25872622    -0.23910
H1280       H  0.75082244  0.18488615  0.20205985     0.15070
H1281       H  0.70953592  0.27380382  0.26747983     0.15100
C1282       C  0.66201487  0.23473344  0.25273190    -0.23860
H1283       H  0.76307735  0.16353282  0.25715350     0.05310
H1284       H  0.78167759  0.18847422  0.28487594     0.08530
H1285       H  0.80016675  0.18091997  0.24496959     0.08530
H1286       H  0.65155311  0.21063083  0.25781598     0.08520
H1287       H  0.64775706  0.24825308  0.23535681     0.08520
H1288       H  0.66027312  0.24869839  0.27554615     0.05290
C1289       C  0.82881245  0.19165327  0.44627559    -0.20510
C1290       C  0.82845590  0.22564753  0.44664356    -0.07080
C1291       C  0.84552584  0.24235864  0.42241702     0.13790
C1292       C  0.85987872  0.22481538  0.39733731    -0.20560
C1293       C  0.85653574  0.19058780  0.39357775    -0.07080
C1294       C  0.84301985  0.17374199  0.42074532     0.13780
C1295       C  0.84248629  0.13753878  0.42419604    -0.23910
H1296       H  0.81693369  0.17894457  0.46588475     0.15070
H1297       H  0.87134407  0.23862379  0.37824679     0.15100
C1298       C  0.84674572  0.27891898  0.42108674    -0.23860
H1299       H  0.83354291  0.12991722  0.44831911     0.05310
H1300       H  0.86745742  0.12793731  0.42219559     0.08530
H1301       H  0.82556968  0.12658575  0.40664577     0.08530
H1302       H  0.85997706  0.28847105  0.44236229     0.08520
H1303       H  0.82175963  0.28893036  0.42054035     0.08520
H1304       H  0.85953376  0.28782877  0.39922474     0.05290
C1305       C  0.72715643  0.30191089  0.61175098    -0.20510
C1306       C  0.72277896  0.32125235  0.58514265    -0.07080
C1307       C  0.70205565  0.34837360  0.58709865     0.13790
C1308       C  0.68729648  0.35617216  0.61713002    -0.20560
C1309       C  0.69345550  0.33778489  0.64537939    -0.07080
C1310       C  0.71061445  0.30730037  0.64024144     0.13780
C1311       C  0.71019135  0.27718015  0.66127827    -0.23910
H1312       H  0.74221271  0.28036038  0.60939105     0.15070
H1313       H  0.67150700  0.37709215  0.61874016     0.15100
C1314       C  0.69565560  0.36873856  0.55776371    -0.23860
H1315       H  0.71157245  0.25470709  0.64647524     0.05310
H1316       H  0.68728153  0.27398929  0.67411271     0.08530
H1317       H  0.73154425  0.27661327  0.67745599     0.08530
H1318       H  0.68458288  0.35356327  0.53857309     0.08520
H1319       H  0.71879906  0.37900682  0.54869061     0.08520
H1320       H  0.67890789  0.38908730  0.56326923     0.05290
C1321       C  0.69394469  0.31010096  0.43110937    -0.20510
C1322       C  0.72298310  0.32377683  0.44196733    -0.07080
C1323       C  0.73276746  0.35337425  0.42820324     0.13790
C1324       C  0.71580629  0.36568421  0.40158892    -0.20560
C1325       C  0.68905226  0.34988731  0.38671207    -0.07080
C1326       C  0.67670141  0.32223769  0.40438058     0.13780
C1327       C  0.64638954  0.30273868  0.39731853    -0.23910
H1328       H  0.68489869  0.28850425  0.44300583     0.15070
H1329       H  0.72678125  0.38632396  0.39058051     0.15100
C1330       C  0.76204357  0.37186060  0.44004953    -0.23860
H1331       H  0.65285322  0.27680848  0.39392753     0.05310
H1332       H  0.63202195  0.30952633  0.37647697     0.08530
H1333       H  0.62988332  0.30436224  0.41845092     0.08530
H1334       H  0.78431022  0.35721318  0.43635255     0.08520
H1335       H  0.75902788  0.37795285  0.46598793     0.08520
H1336       H  0.76555802  0.39505549  0.42691780     0.05290
C1337       C  0.42414446  0.74303122  0.70430001    -0.20510
C1338       C  0.44535957  0.72022279  0.71742711    -0.07080
C1339       C  0.43929127  0.68710365  0.71106876     0.13790
C1340       C  0.41082638  0.67786051  0.69401454    -0.20560
C1341       C  0.38598370  0.70043696  0.68640128    -0.07080
C1342       C  0.39478951  0.73452566  0.68979679     0.13780
C1343       C  0.37416388  0.76398983  0.68071732    -0.23910
H1344       H  0.42938350  0.76861246  0.70749145     0.14830
H1345       H  0.40703901  0.65246183  0.68872498     0.15100
C1346       C  0.46287167  0.66154337  0.72185496    -0.23860
H1347       H  0.37219003  0.78142777  0.70086322     0.05310
H1348       H  0.34902402  0.75897692  0.67345660     0.08530
H1349       H  0.38620734  0.77746467  0.66091114     0.08530
H1350       H  0.46471096  0.66164172  0.74857349     0.08520
H1351       H  0.48709339  0.66642084  0.71123422     0.08520
H1352       H  0.45509239  0.63694316  0.71420835     0.05290
C1353       C  0.61587116  0.74170754  0.70456855    -0.20510
C1354       C  0.59432450  0.72054982  0.71940624    -0.07080
C1355       C  0.60013984  0.68685766  0.71611265     0.13790
C1356       C  0.62877918  0.67578553  0.70055495    -0.20560
C1357       C  0.65325111  0.69731388  0.68955652    -0.07080
C1358       C  0.64303591  0.73080835  0.68729410     0.13780
C1359       C  0.65430411  0.75562090  0.66294482    -0.23910
H1360       H  0.61039404  0.76745229  0.70477827     0.15070
H1361       H  0.63222236  0.64995665  0.69819602     0.15100
C1362       C  0.57624085  0.66239115  0.72874560    -0.23860
H1363       H  0.63280580  0.76660925  0.65103410     0.05310
H1364       H  0.66762855  0.74596453  0.64226663     0.08530
H1365       H  0.66709472  0.77583061  0.67512629     0.08530
H1366       H  0.55207999  0.66673304  0.71780123     0.08520
H1367       H  0.57443582  0.66430657  0.75539503     0.08520
H1368       H  0.58368897  0.63719390  0.72287980     0.05290
C1369       C  0.58916627  0.71266753  0.34411965    -0.20510
C1370       C  0.58325444  0.70813823  0.31091625    -0.07080
C1371       C  0.60171213  0.68442532  0.29468276     0.13790
C1372       C  0.63042819  0.67388672  0.30909303    -0.20560
C1373       C  0.64217686  0.68796981  0.33805440    -0.07080
C1374       C  0.61708442  0.69945337  0.35862362     0.13780
C1375       C  0.61653767  0.69459124  0.39467023    -0.23910
H1376       H  0.57202135  0.72614119  0.35873587     0.15070
H1377       H  0.64387770  0.65562703  0.29640721     0.15100
C1378       C  0.59338207  0.67195172  0.26146320    -0.23860
H1379       H  0.59375319  0.68196123  0.40139168     0.05310
H1380       H  0.61697323  0.71814148  0.40758108     0.08530
H1381       H  0.63637032  0.67870789  0.40315109     0.08530
H1382       H  0.59516995  0.69181701  0.24350987     0.08520
H1383       H  0.56854191  0.66162920  0.26156777     0.08520
H1384       H  0.61021564  0.65251550  0.25347332     0.05290
C1385       C  0.43904580  0.69038732  0.30686533    -0.20510
C1386       C  0.44374897  0.72384883  0.30960031    -0.07080
C1387       C  0.42236966  0.74154390  0.32899759     0.13790
C1388       C  0.39686680  0.72557018  0.34422207    -0.20560
C1389       C  0.38892667  0.69197570  0.34040372    -0.07080
C1390       C  0.41305995  0.67378599  0.32226934     0.13780
C1391       C  0.41507359  0.63739455  0.31904600    -0.23910
H1392       H  0.45661130  0.67693830  0.29271352     0.15070
H1393       H  0.38168824  0.74122261  0.35816246     0.15100
C1394       C  0.42467125  0.77802029  0.33244739    -0.23860
H1395       H  0.43611414  0.62951257  0.30425331     0.05310
H1396       H  0.39412084  0.62702794  0.30623111     0.08530
H1397       H  0.41968551  0.62644191  0.34294902     0.08530
H1398       H  0.42468817  0.78953391  0.30821589     0.08520
H1399       H  0.44698862  0.78468769  0.34578537     0.08520
H1400       H  0.40393830  0.78840441  0.34610366     0.05290
C1401       C  0.22221036  0.81239988  0.65142289    -0.20510
C1402       C  0.19796558  0.83685501  0.65371261    -0.07080
C1403       C  0.18377995  0.84651298  0.62355553     0.13790
C1404       C  0.19713054  0.83526511  0.59397483    -0.20560
C1405       C  0.22445462  0.81510937  0.59337239    -0.07080
C1406       C  0.23749482  0.80432061  0.62254350     0.13780
C1407       C  0.26784087  0.78399450  0.62333495    -0.23910
H1408       H  0.22973648  0.79844985  0.67202644     0.15070
H1409       H  0.18643300  0.84247671  0.57120618     0.15100
C1410       C  0.15448809  0.86817900  0.62159385    -0.23860
H1411       H  0.27662054  0.78017812  0.64834697     0.05310
H1412       H  0.28761597  0.79663779  0.61026421     0.08530
H1413       H  0.26316734  0.76020430  0.61176046     0.08530
H1414       H  0.15942430  0.89173591  0.63321196     0.08520
H1415       H  0.13328088  0.85624136  0.63280274     0.08520
H1416       H  0.14770417  0.87343675  0.59619886     0.05290
C1417       C  0.09418138  0.83986017  0.71153257    -0.20510
C1418       C  0.09250980  0.80602395  0.71467420    -0.07080
C1419       C  0.11799028  0.78736531  0.70136666     0.13790
C1420       C  0.14590994  0.80302822  0.68952007    -0.20560
C1421       C  0.15029842  0.83713002  0.69133153    -0.07080
C1422       C  0.12163543  0.85569550  0.69847959     0.13780
C1423       C  0.11729542  0.89149998  0.69248162    -0.23910
H1424       H  0.07364467  0.85427046  0.71939182     0.15070
H1425       H  0.16610888  0.78802981  0.68206776     0.15100
C1426       C  0.11757479  0.75083497  0.70233076    -0.23860
H1427       H  0.09569900  0.89521161  0.67693696     0.05310
H1428       H  0.13754961  0.90313384  0.67984598     0.08530
H1429       H  0.11309904  0.90428956  0.71571092     0.08530
H1430       H  0.09707009  0.74153762  0.68770173     0.08520
H1431       H  0.11517152  0.74239583  0.72767408     0.08520
H1432       H  0.14018725  0.74021039  0.69231530     0.05290
C1433       C  0.24227136  0.83821028  0.71334901    -0.20510
C1434       C  0.20831530  0.83347327  0.71527654    -0.07080
C1435       C  0.19760238  0.81358417  0.74114265     0.13790
C1436       C  0.21916090  0.79207628  0.75557572    -0.20560
C1437       C  0.25301618  0.79490990  0.75231737    -0.07080
C1438       C  0.26455044  0.81823510  0.72944475     0.13780
C1439       C  0.29987954  0.82176608  0.71992660    -0.23910
H1440       H  0.25164340  0.85501719  0.69579419     0.15070
H1441       H  0.20846083  0.77435993  0.77142699     0.15100
C1442       C  0.16584867  0.81642309  0.75868559    -0.23860
H1443       H  0.30359590  0.84181665  0.70244995     0.05310
H1444       H  0.30861685  0.79956983  0.70769373     0.08530
H1445       H  0.31548781  0.82734181  0.74075867     0.08530
H1446       H  0.15312259  0.79284837  0.75741031     0.08520
H1447       H  0.14957638  0.83566776  0.75079725     0.08520
H1448       H  0.17115420  0.82248074  0.78422019     0.05290
C1449       C  0.22899626  0.93444574  0.69604055    -0.20510
C1450       C  0.21961845  0.94302066  0.72751463    -0.07080
C1451       C  0.19465770  0.92479510  0.74211921     0.13790
C1452       C  0.18208321  0.89757898  0.72609624    -0.20560
C1453       C  0.19301824  0.88652784  0.69549800    -0.07080
C1454       C  0.21668266  0.90687322  0.67978721     0.13780
C1455       C  0.23140857  0.90037070  0.64692580    -0.23910
H1456       H  0.24737919  0.94900893  0.68429063     0.15070
H1457       H  0.16473771  0.88333398  0.73910350     0.15100
C1458       C  0.18183845  0.93246009  0.77539668    -0.23860
H1459       H  0.24991443  0.91873522  0.64029540     0.05310
H1460       H  0.21284418  0.90203455  0.62787230     0.08530
H1461       H  0.24429120  0.87691001  0.64610127     0.08530
H1462       H  0.17128331  0.95720791  0.77571192     0.08520
H1463       H  0.20164597  0.93055403  0.79341070     0.08520
H1464       H  0.16242222  0.91543646  0.78296892     0.05290
C1465       C  0.83162900  0.18116571  0.62395921    -0.20510
C1466       C  0.84614038  0.20107880  0.64771778    -0.07080
C1467       C  0.85714601  0.23200473  0.63578400     0.13790
C1468       C  0.84257882  0.24531947  0.60805116    -0.20560
C1469       C  0.82066482  0.22773731  0.58912839    -0.07080
C1470       C  0.81717000  0.19424997  0.59595764     0.13780
C1471       C  0.79828135  0.17191857  0.57415721    -0.23910
H1472       H  0.82915644  0.15549224  0.62808897     0.15070
H1473       H  0.84923234  0.26959445  0.60059347     0.15100
C1474       C  0.88881330  0.24821400  0.64552045    -0.23860
H1475       H  0.79988177  0.14627637  0.58213933     0.05310
H1476       H  0.80797959  0.17330731  0.54918712     0.08530
H1477       H  0.77225737  0.17866633  0.57438300     0.08530
H1478       H  0.90907126  0.23713754  0.63180099     0.08520
H1479       H  0.89496307  0.24721878  0.67132198     0.08520
H1480       H  0.88848754  0.27440844  0.63934627     0.05290
C1481       C  0.85610874  0.13162242  0.70530447    -0.20510
C1482       C  0.83475329  0.15383572  0.68966647    -0.07080
C1483       C  0.80289073  0.14151301  0.68248487     0.13790
C1484       C  0.79351248  0.11060970  0.69384430    -0.20560
C1485       C  0.81368823  0.09158667  0.71356563    -0.07080
C1486       C  0.84606596  0.10156415  0.71763952     0.13780
C1487       C  0.87050986  0.08098530  0.73539544    -0.23910
H1488       H  0.88078800  0.13802584  0.71059241     0.15070
H1489       H  0.76878177  0.10277795  0.68972750     0.15100
C1490       C  0.77615845  0.16089228  0.66644831    -0.23860
H1491       H  0.89544090  0.09093879  0.73346071     0.05310
H1492       H  0.87087842  0.05615723  0.72503679     0.08530
H1493       H  0.86450900  0.07997362  0.76147001     0.08530
H1494       H  0.76917802  0.14897701  0.64344978     0.08520
H1495       H  0.78259249  0.18631867  0.66131070     0.08520
H1496       H  0.75440540  0.16164557  0.68222396     0.05290
C1497       C  0.82955449  0.24773166  0.70366469    -0.20510
C1498       C  0.82127410  0.21449002  0.70313760    -0.07080
C1499       C  0.79546210  0.20616175  0.72482531     0.13790
C1500       C  0.77640713  0.23136559  0.73730372    -0.20560
C1501       C  0.79104702  0.26131762  0.74600621    -0.07080
C1502       C  0.82039932  0.26826887  0.72900054     0.13780
C1503       C  0.84618089  0.29304810  0.73705173    -0.23910
H1504       H  0.84887928  0.25643132  0.68945929     0.15070
H1505       H  0.75280888  0.22483729  0.74661440     0.15100
C1506       C  0.79334657  0.17520089  0.74437537    -0.23860
H1507       H  0.86934069  0.28025865  0.74184847     0.05310
H1508       H  0.84199628  0.30785687  0.75829002     0.08530
H1509       H  0.85045455  0.30930223  0.71614623     0.08530
H1510       H  0.81684734  0.16264246  0.74648645     0.08520
H1511       H  0.77368415  0.15928600  0.73557942     0.08520
H1512       H  0.78709379  0.18054143  0.76976308     0.05290
C1513       C  0.93890218  0.19963396  0.70104278    -0.20510
C1514       C  0.93818514  0.21521880  0.73115950    -0.07080
C1515       C  0.90884959  0.21754608  0.74808076     0.13790
C1516       C  0.88061941  0.20614526  0.73370421    -0.20560
C1517       C  0.87955272  0.19568963  0.70102661    -0.07080
C1518       C  0.91010760  0.18855994  0.68615128     0.13780
C1519       C  0.91320990  0.16872923  0.65554772    -0.23910
H1520       H  0.96205823  0.19618656  0.68915919     0.15070
H1521       H  0.85887640  0.20695962  0.74820066     0.15100
C1522       C  0.90681973  0.23356294  0.78086385    -0.23860
H1523       H  0.93898725  0.16345997  0.64988370     0.05310
H1524       H  0.90324764  0.18140101  0.63433384     0.08530
H1525       H  0.90076032  0.14511131  0.65816590     0.08530
H1526       H  0.91578734  0.25887903  0.77924051     0.08520
H1527       H  0.92163238  0.21996776  0.79860998     0.08520
H1528       H  0.88155588  0.23449111  0.79011118     0.05290
C1529       C  0.63617083  0.82755889  0.17454165    -0.20510
C1530       C  0.65179917  0.85295881  0.19209743    -0.07080
C1531       C  0.63653409  0.86082939  0.22257168     0.13790
C1532       C  0.60989583  0.84295041  0.23392213    -0.20560
C1533       C  0.59650545  0.81685668  0.21718499    -0.07080
C1534       C  0.60962970  0.80947430  0.18653563     0.13780
C1535       C  0.59713492  0.78148534  0.16669414    -0.23910
H1536       H  0.64677371  0.81855318  0.15259067     0.15070
H1537       H  0.59980287  0.84934944  0.25726421     0.15100
C1538       C  0.64666716  0.88666669  0.24609793    -0.23860
H1539       H  0.61028496  0.77896794  0.14342395     0.05310
H1540       H  0.57112905  0.78525426  0.16099601     0.08530
H1541       H  0.60035389  0.75846648  0.18018409     0.08530
H1542       H  0.62505258  0.90064975  0.25408610     0.08520
H1543       H  0.66232086  0.90491161  0.23628220     0.08520
H1544       H  0.65800723  0.87541262  0.26763581     0.05290
C1545       C  0.73210638  0.83224526  0.14781434    -0.20510
C1546       C  0.70115700  0.84780633  0.14929485    -0.07080
C1547       C  0.68528523  0.85189152  0.11867645     0.13790
C1548       C  0.69815314  0.83711154  0.09049990    -0.20560
C1549       C  0.72741794  0.81990473  0.09106304    -0.07080
C1550       C  0.74485346  0.81821143  0.11992195     0.13780
C1551       C  0.77689519  0.80055334  0.12160602    -0.23910
H1552       H  0.74734248  0.83057385  0.16885739     0.15070
H1553       H  0.68517820  0.83907495  0.06783895     0.15100
C1554       C  0.65435662  0.87051544  0.11402392    -0.23860
H1555       H  0.78753033  0.80100256  0.14607452     0.05310
H1556       H  0.79465872  0.81196366  0.10501919     0.08530
H1557       H  0.77337167  0.77478432  0.11481399     0.08530
H1558       H  0.64411424  0.87942462  0.13670711     0.08520
H1559       H  0.63582343  0.85457679  0.10279819     0.08520
H1560       H  0.65880927  0.89149780  0.09786576     0.05290
C1561       C  0.75173320  0.82997166  0.24585526    -0.20510
C1562       C  0.74829528  0.79610780  0.24378065    -0.07080
C1563       C  0.72424934  0.78448103  0.22182314     0.13790
C1564       C  0.70343608  0.80648065  0.20677320    -0.20560
C1565       C  0.70629422  0.84056826  0.21018257    -0.07080
C1566       C  0.72864167  0.85147744  0.23407807     0.13780
C1567       C  0.72818205  0.88335789  0.25188658    -0.23910
H1568       H  0.77230197  0.84077576  0.25756677     0.15070
H1569       H  0.68699252  0.79679717  0.18901676     0.15100
C1570       C  0.72049065  0.74929415  0.21231589    -0.23860
H1571       H  0.75259944  0.89456691  0.25163319     0.05310
H1572       H  0.72124700  0.87880905  0.27732498     0.08530
H1573       H  0.71124517  0.90123572  0.24299302     0.08530
H1574       H  0.71691917  0.73387950  0.23363016     0.08520
H1575       H  0.74187892  0.74122019  0.19825746     0.08520
H1576       H  0.69912189  0.74515603  0.19656981     0.05290
C1577       C  0.73477415  0.90288135  0.18274272    -0.20510
C1578       C  0.70069360  0.89786849  0.18365776    -0.07080
C1579       C  0.68190188  0.92685091  0.18720053     0.13790
C1580       C  0.69630259  0.95415491  0.20235170    -0.20560
C1581       C  0.72967288  0.95523832  0.20895117    -0.07080
C1582       C  0.74944853  0.93056859  0.19597741     0.13780
C1583       C  0.78584872  0.93097440  0.19985674    -0.23910
H1584       H  0.75072003  0.88330039  0.17646782     0.15070
H1585       H  0.68145715  0.97471270  0.20920507     0.15100
C1586       C  0.64758569  0.93053529  0.17532321    -0.23860
H1587       H  0.79735204  0.90869051  0.19006898     0.05310
H1588       H  0.79232942  0.93263812  0.22582289     0.08530
H1589       H  0.79619952  0.95195747  0.18668268     0.08530
H1590       H  0.63117698  0.91157128  0.18437871     0.08520
H1591       H  0.64765418  0.93079631  0.14860353     0.08520
H1592       H  0.63699823  0.95408614  0.18293202     0.05290
C1593       C  0.63374661  0.17985483  0.83186508    -0.20510
C1594       C  0.65482040  0.20162912  0.84819824    -0.07080
C1595       C  0.63978852  0.23116176  0.85857569     0.13790
C1596       C  0.61135644  0.24185302  0.84295564    -0.20560
C1597       C  0.59589718  0.22331043  0.81894814    -0.07080
C1598       C  0.60582472  0.19069224  0.81548090     0.13780
C1599       C  0.58776263  0.16711263  0.79429926    -0.23910
H1600       H  0.64026297  0.15469893  0.82900799     0.15070
H1601       H  0.60205772  0.26574051  0.84863578     0.15100
C1602       C  0.65381582  0.25307449  0.88421829    -0.23860
H1603       H  0.59801382  0.14226733  0.79584016     0.05310
H1604       H  0.58944796  0.17476191  0.76868595     0.08530
H1605       H  0.56197557  0.16587817  0.80187749     0.08530
H1606       H  0.67777693  0.26256586  0.87704819     0.08520
H1607       H  0.65550720  0.23990168  0.90743432     0.08520
H1608       H  0.63820670  0.27454056  0.88872460     0.05290
C1609       C  0.70930555  0.12057668  0.79328049    -0.20510
C1610       C  0.72438639  0.09837916  0.81374083    -0.07080
C1611       C  0.72550386  0.10515939  0.84713348     0.13790
C1612       C  0.71315257  0.13480015  0.85880965    -0.20560
C1613       C  0.69981862  0.15875677  0.83815284    -0.07080
C1614       C  0.69737475  0.15034944  0.80437133     0.13780
C1615       C  0.68414692  0.17208947  0.77795457    -0.23910
H1616       H  0.70822042  0.11536677  0.76762267     0.15070
H1617       H  0.71671892  0.13972717  0.88399847     0.15100
C1618       C  0.73991895  0.08141278  0.87074754    -0.23860
H1619       H  0.70380101  0.17778574  0.76050920     0.05310
H1620       H  0.67376403  0.19525704  0.78614570     0.08530
H1621       H  0.66448991  0.15918047  0.76492186     0.08530
H1622       H  0.76627866  0.07867800  0.86626257     0.08520
H1623       H  0.72775002  0.05753965  0.86827170     0.08520
H1624       H  0.73689029  0.08961113  0.89611685     0.05290
C1625       C  0.70143386  0.24685350  0.81804017    -0.20510
C1626       C  0.71328863  0.21610835  0.82723013    -0.07080
C1627       C  0.74746128  0.21071389  0.82210059     0.13790
C1628       C  0.76567260  0.23394198  0.80569401    -0.20560
C1629       C  0.75262237  0.26365675  0.79520092    -0.07080
C1630       C  0.72207416  0.27187697  0.80862140     0.13780
C1631       C  0.71068289  0.30611514  0.81445975    -0.23910
H1632       H  0.67650190  0.25329318  0.82027664     0.15070
H1633       H  0.79018036  0.22755112  0.79947673     0.15100
C1634       C  0.76657290  0.18217696  0.83514788    -0.23860
H1635       H  0.72977836  0.31985938  0.82723702     0.05310
H1636       H  0.68906213  0.30657401  0.83046186     0.08530
H1637       H  0.70315952  0.31840339  0.79217918     0.08530
H1638       H  0.76118396  0.15999887  0.82118007     0.08520
H1639       H  0.76208021  0.17850957  0.86121137     0.08520
H1640       H  0.79315356  0.18581677  0.83290293     0.05290
C1641       C  0.72908574  0.22697132  0.89017491    -0.20510
C1642       C  0.70559969  0.20188966  0.88606453    -0.07080
C1643       C  0.69422047  0.18738840  0.91544900     0.13790
C1644       C  0.70822502  0.19651607  0.94553919    -0.20560
C1645       C  0.73352025  0.21935109  0.94714850    -0.07080
C1646       C  0.74402726  0.23419552  0.91894287     0.13780
C1647       C  0.76982405  0.26004194  0.91933937    -0.23910
H1648       H  0.73593702  0.24330158  0.87130419     0.15070
H1649       H  0.69902377  0.18615626  0.96776182     0.15100
C1650       C  0.66669741  0.16343648  0.91661399    -0.23860
H1651       H  0.77539691  0.26994553  0.89502380     0.05310
H1652       H  0.79264237  0.25019960  0.92955110     0.08530
H1653       H  0.76079497  0.28002924  0.93451709     0.08530
H1654       H  0.67498469  0.14080026  0.92851282     0.08520
H1655       H  0.65738718  0.15682137  0.89252677     0.08520
H1656       H  0.64638155  0.17382898  0.93084051     0.05290
C1657       C  0.19953462  0.61208970  0.79577528    -0.20510
C1658       C  0.21436455  0.58983662  0.81656052    -0.07080
C1659       C  0.21238399  0.59542915  0.85020385     0.13790
C1660       C  0.20000272  0.62512345  0.86162082    -0.20560
C1661       C  0.19232817  0.65078313  0.84028595    -0.07080
C1662       C  0.18847660  0.64238390  0.80683697     0.13780
C1663       C  0.17457946  0.66520097  0.78177755    -0.23910
H1664       H  0.19907024  0.60693699  0.77012386     0.15070
H1665       H  0.19859904  0.62877651  0.88739782     0.15100
C1666       C  0.22336095  0.57044479  0.87429151    -0.23860
H1667       H  0.17629656  0.65498559  0.75702705     0.05310
H1668       H  0.18748008  0.68867894  0.78131838     0.08530
H1669       H  0.14847612  0.66930819  0.78640728     0.08530
H1670       H  0.24983714  0.56636129  0.87232843     0.08520
H1671       H  0.21016262  0.54749374  0.86991810     0.08520
H1672       H  0.21832024  0.57814854  0.89949673     0.05290
C1673       C  0.09637909  0.69302431  0.83420614    -0.20510
C1674       C  0.09382730  0.72421600  0.82111723    -0.07080
C1675       C  0.12141516  0.74382202  0.82089667     0.13790
C1676       C  0.15168311  0.73013116  0.82705386    -0.20560
C1677       C  0.15565442  0.69964926  0.84255879    -0.07080
C1678       C  0.12611594  0.68141522  0.84709989     0.13780
C1679       C  0.12498352  0.64930985  0.86446399    -0.23910
H1680       H  0.07487282  0.67798220  0.83509262     0.15070
H1681       H  0.17138963  0.74477180  0.81925389     0.15100
C1682       C  0.11916487  0.77964823  0.81440789    -0.23860
H1683       H  0.13315584  0.62955002  0.84824944     0.05310
H1684       H  0.09988886  0.64324847  0.87206823     0.08530
H1685       H  0.13997696  0.65000000  0.88664278     0.08530
H1686       H  0.10286119  0.79110189  0.83242781     0.08520
H1687       H  0.10960419  0.78409297  0.78982874     0.08520
H1688       H  0.14296763  0.79157384  0.81737497     0.05290
C1689       C  0.22176187  0.73947841  0.84342178    -0.20510
C1690       C  0.21879449  0.70650699  0.83547926    -0.07080
C1691       C  0.24302785  0.69462966  0.81364763     0.13790
C1692       C  0.25787498  0.71615388  0.79221344    -0.20560
C1693       C  0.25605638  0.75007418  0.79603621    -0.07080
C1694       C  0.23821726  0.76156938  0.82371359     0.13780
C1695       C  0.23519357  0.79673820  0.83364843    -0.23910
H1696       H  0.20757252  0.74885213  0.86334716     0.15070
H1697       H  0.27395368  0.70549519  0.77460825     0.15100
C1698       C  0.25918578  0.66174122  0.81475655    -0.23860
H1699       H  0.21591066  0.80053088  0.85199137     0.05310
H1700       H  0.22882974  0.81266786  0.81325625     0.08530
H1701       H  0.25781678  0.80474364  0.84523127     0.08530
H1702       H  0.25470026  0.64836018  0.79195953     0.08520
H1703       H  0.25273212  0.64688676  0.83565415     0.08520
H1704       H  0.28582479  0.66506898  0.81697243     0.05290
C1705       C  0.19771618  0.72365428  0.94054718    -0.20510
C1706       C  0.22983454  0.71558527  0.94812940    -0.07080
C1707       C  0.24552473  0.69258958  0.92812308     0.13790
C1708       C  0.23017624  0.68160681  0.89982286    -0.20560
C1709       C  0.19883631  0.69171663  0.88983051    -0.07080
C1710       C  0.18172130  0.71207677  0.91253350     0.13780
C1711       C  0.14726448  0.72364976  0.90855241    -0.23910
H1712       H  0.18506961  0.74019302  0.95652042     0.15070
H1713       H  0.24421114  0.66642856  0.88397461     0.15100
C1714       C  0.27910642  0.68003324  0.93529303    -0.23860
H1715       H  0.13849487  0.73724288  0.93000272     0.05310
H1716       H  0.13058792  0.70287560  0.90611202     0.08530
H1717       H  0.14528928  0.74086479  0.88828025     0.08530
H1718       H  0.27925903  0.66771140  0.95910272     0.08520
H1719       H  0.29681103  0.70025739  0.93515955     0.08520
H1720       H  0.28738029  0.66205137  0.91709220     0.05290
C1721       C  0.80991979  0.64087804  0.17922505    -0.20510
C1722       C  0.84254592  0.64823333  0.18732588    -0.07080
C1723       C  0.86203002  0.62131463  0.19731286     0.13790
C1724       C  0.84659336  0.59325882  0.20922428    -0.20560
C1725       C  0.81288473  0.58949656  0.20749817    -0.07080
C1726       C  0.79500458  0.61182981  0.18865336     0.13780
C1727       C  0.75933876  0.60764577  0.18180383    -0.23910
H1728       H  0.79482748  0.65972282  0.16894464     0.15070
H1729       H  0.86093050  0.57437652  0.22047756     0.15100
C1730       C  0.89837111  0.62002978  0.19380285    -0.23860
H1731       H  0.74940083  0.62811650  0.16750022     0.05310
H1732       H  0.74548050  0.60648769  0.20474969     0.08530
H1733       H  0.75543120  0.58515127  0.16762488     0.08530
H1734       H  0.90558566  0.62963038  0.16984888     0.08520
H1735       H  0.90730767  0.59464931  0.19487693     0.08520
H1736       H  0.91073643  0.63309507  0.21355799     0.05290
C1737       C  0.83817644  0.67663692  0.12483058    -0.20510
C1738       C  0.85095709  0.69754825  0.14912321    -0.07080
C1739       C  0.85787475  0.72996283  0.13709979     0.13790
C1740       C  0.84162776  0.74147790  0.10951169    -0.20560
C1741       C  0.82143295  0.72184489  0.09092799    -0.07080
C1742       C  0.82162983  0.68832652  0.09739501     0.13780
C1743       C  0.80505754  0.66454714  0.07525253    -0.23910
H1744       H  0.83947707  0.65067538  0.12753149     0.15070
H1745       H  0.84495951  0.76653963  0.10232289     0.15100
C1746       C  0.88441479  0.75313383  0.14798485    -0.23860
H1747       H  0.80925548  0.63907610  0.08282988     0.05310
H1748       H  0.81447888  0.66738209  0.05029796     0.08530
H1749       H  0.77850155  0.66869415  0.07550270     0.08530
H1750       H  0.89579814  0.74834715  0.17132750     0.08520
H1751       H  0.87436973  0.77804733  0.15020282     0.08520
H1752       H  0.90382886  0.75374097  0.12940879     0.05290
C1753       C  0.83009712  0.73963733  0.20480668    -0.20510
C1754       C  0.82776121  0.70567127  0.20718659    -0.07080
C1755       C  0.80279081  0.69445225  0.22929223     0.13790
C1756       C  0.78212942  0.71683808  0.24407847    -0.20560
C1757       C  0.78647474  0.75033655  0.24245056    -0.07080
C1758       C  0.80911523  0.76182196  0.21940876     0.13780
C1759       C  0.81401335  0.79738367  0.21155776    -0.23910
H1760       H  0.85049276  0.74995864  0.19398103     0.15070
H1761       H  0.76430328  0.70731696  0.25998161     0.15100
C1762       C  0.79863150  0.66130371  0.24478458    -0.23860
H1763       H  0.79199276  0.80736579  0.20021936     0.05310
H1764       H  0.83392489  0.80120268  0.19392312     0.08530
H1765       H  0.82015470  0.81183917  0.23313171     0.08530
H1766       H  0.81843206  0.64430705  0.24119188     0.08520
H1767       H  0.77522619  0.65054680  0.23720226     0.08520
H1768       H  0.79764429  0.66369209  0.27152429     0.05290
C1769       C  0.91496794  0.69484005  0.18148114    -0.20510
C1770       C  0.88742625  0.69016614  0.20149800    -0.07080
C1771       C  0.89355344  0.69096836  0.23566841     0.13790
C1772       C  0.92201890  0.70500916  0.24727932    -0.20560
C1773       C  0.94640457  0.71564047  0.22675075    -0.07080
C1774       C  0.94383349  0.70888309  0.19349510     0.13780
C1775       C  0.97111373  0.71674988  0.17071803    -0.23910
H1776       H  0.91312269  0.69024538  0.15583153     0.15070
H1777       H  0.92517290  0.70806466  0.27310912     0.15100
C1778       C  0.87316362  0.67461936  0.26098078    -0.23860
H1779       H  0.96544890  0.70917000  0.14562023     0.05310
H1780       H  0.99346667  0.70397226  0.17848401     0.08530
H1781       H  0.97557084  0.74326795  0.17059062     0.08530
H1782       H  0.88552589  0.67364805  0.28477493     0.08520
H1783       H  0.86894774  0.64903626  0.25453233     0.08520
H1784       H  0.85095051  0.68818578  0.26570971     0.05290
C1785       C  0.17386471  0.84592634  0.41500770    -0.20510
C1786       C  0.19388325  0.85245364  0.38790393    -0.07080
C1787       C  0.22787622  0.85650305  0.39464308     0.13790
C1788       C  0.24045151  0.84537430  0.42406547    -0.20560
C1789       C  0.22079654  0.82999527  0.44690660    -0.07080
C1790       C  0.18684850  0.83262063  0.44356483     0.13780
C1791       C  0.16420518  0.82105085  0.46966004    -0.23910
H1792       H  0.14779973  0.84730411  0.41286886     0.15070
H1793       H  0.26648942  0.84571812  0.42762251     0.15100
C1794       C  0.25286251  0.86828495  0.37063543    -0.23860
H1795       H  0.13854181  0.82669605  0.46388031     0.05310
H1796       H  0.17031739  0.83309412  0.49284641     0.08530
H1797       H  0.16613224  0.79439745  0.47247396     0.08530
H1798       H  0.26343005  0.89141882  0.37937465     0.08520
H1799       H  0.24350771  0.87209511  0.34605965     0.08520
H1800       H  0.27268503  0.85027952  0.36859853     0.05290
C1801       C  0.11889695  0.86250253  0.34217733    -0.20510
C1802       C  0.14353113  0.84125257  0.35272678    -0.07080
C1803       C  0.13376871  0.80847458  0.35970720     0.13790
C1804       C  0.10421211  0.79717016  0.34800532    -0.20560
C1805       C  0.08387204  0.81672134  0.32952562    -0.07080
C1806       C  0.09002846  0.85044415  0.32855445     0.13780
C1807       C  0.06707664  0.87378096  0.31262249    -0.23910
H1808       H  0.12363345  0.88822915  0.34057745     0.15070
H1809       H  0.09854371  0.77166521  0.35098972     0.15100
C1810       C  0.15345038  0.78279753  0.37671837    -0.23860
H1811       H  0.07524757  0.89928656  0.31531981     0.05310
H1812       H  0.04295215  0.87167928  0.32405393     0.08530
H1813       H  0.06534332  0.86870509  0.28640079     0.08530
H1814       H  0.13830846  0.77119767  0.39565114     0.08520
H1815       H  0.17472505  0.79157610  0.38946665     0.08520
H1816       H  0.16102024  0.76388241  0.35916082     0.05290
C1817       C  0.22021158  0.80824544  0.28068413    -0.20510
C1818       C  0.24476531  0.78980291  0.29562852    -0.07080
C1819       C  0.23890048  0.78250139  0.32896335     0.13790
C1820       C  0.22034162  0.80414716  0.34667308    -0.20560
C1821       C  0.19853582  0.82587390  0.33184227    -0.07080
C1822       C  0.19370595  0.81976439  0.29831989     0.13780
C1823       C  0.16254880  0.80518018  0.28567180    -0.23910
H1824       H  0.21893509  0.80924002  0.25463524     0.15070
H1825       H  0.22166894  0.80130888  0.37241372     0.15100
C1826       C  0.24689409  0.75183480  0.34731168    -0.23860
H1827       H  0.16035126  0.80908642  0.25921813     0.05310
H1828       H  0.14052008  0.81468771  0.29672419     0.08530
H1829       H  0.16267496  0.77862901  0.29020888     0.08530
H1830       H  0.26350981  0.75732482  0.36766513     0.08520
H1831       H  0.25685863  0.73224657  0.33266172     0.08520
H1832       H  0.22424504  0.74165083  0.35770336     0.05290
C1833       C  0.19560339  0.91349293  0.35718149    -0.20510
C1834       C  0.18500643  0.88758700  0.33695955    -0.07080
C1835       C  0.18355871  0.89562805  0.30313575     0.13790
C1836       C  0.20059565  0.92250571  0.29125654    -0.20560
C1837       C  0.21563089  0.94486668  0.31151811    -0.07080
C1838       C  0.21215265  0.94086448  0.34511358     0.13780
C1839       C  0.22580811  0.96522083  0.36847783    -0.23910
H1840       H  0.19292176  0.91179106  0.38306482     0.15070
H1841       H  0.20093890  0.92679237  0.26540882     0.15100
C1842       C  0.16150647  0.88091961  0.27827436    -0.23860
H1843       H  0.21995334  0.95901198  0.39390174     0.05310
H1844       H  0.21553743  0.98943233  0.36329341     0.08530
H1845       H  0.25258541  0.96608300  0.36622244     0.08530
H1846       H  0.14355821  0.86464171  0.28827835     0.08520
H1847       H  0.17588653  0.86883772  0.25905772     0.08520
H1848       H  0.14695379  0.90037230  0.26669781     0.05290
C1849       C  0.84356632  0.79972405  0.64478342    -0.20510
C1850       C  0.84272118  0.83326027  0.65195586    -0.07080
C1851       C  0.83754663  0.85378712  0.62454799     0.13790
C1852       C  0.82303737  0.84064367  0.59631704    -0.20560
C1853       C  0.81956190  0.80693684  0.59206341    -0.07080
C1854       C  0.83291907  0.78640973  0.61566582     0.13780
C1855       C  0.83536067  0.75011686  0.61115859    -0.23910
H1856       H  0.85256880  0.78297772  0.66191088     0.15070
H1857       H  0.81612549  0.85667509  0.57678694     0.15100
C1858       C  0.84975060  0.88810998  0.62221755    -0.23860
H1859       H  0.84520605  0.73776634  0.63285242     0.05310
H1860       H  0.85194385  0.74461572  0.59077381     0.08530
H1861       H  0.81122141  0.73955831  0.60623070     0.08530
H1862       H  0.86565493  0.89492358  0.64256063     0.08520
H1863       H  0.82912939  0.90527492  0.62024005     0.08520
H1864       H  0.86486849  0.89056270  0.60016236     0.05290
C1865       C  0.82765208  0.82837841  0.74408104    -0.20510
C1866       C  0.82026449  0.82891013  0.71099101    -0.07080
C1867       C  0.78968139  0.81557497  0.70211944     0.13790
C1868       C  0.77210764  0.79772637  0.72526420    -0.20560
C1869       C  0.78429981  0.78960094  0.75611489    -0.07080
C1870       C  0.81303683  0.80696588  0.76573586     0.13780
C1871       C  0.83190576  0.80431552  0.79700391    -0.23910
H1872       H  0.84868591  0.84133365  0.75238965     0.15070
H1873       H  0.74849619  0.78938541  0.71858944     0.15100
C1874       C  0.77334568  0.81961699  0.66974278    -0.23860
H1875       H  0.85653643  0.79459644  0.79220649     0.05310
H1876       H  0.82104172  0.78948027  0.81563548     0.08530
H1877       H  0.83465140  0.82879871  0.80788744     0.08530
H1878       H  0.77594186  0.79715627  0.65549723     0.08520
H1879       H  0.78267212  0.83878544  0.65439727     0.08520
H1880       H  0.74731002  0.82550345  0.67322081     0.05290
C1881       C  0.90975779  0.84231949  0.68748683    -0.20510
C1882       C  0.88077802  0.82737997  0.69819911    -0.07080
C1883       C  0.88498012  0.79605813  0.71408886     0.13790
C1884       C  0.91557489  0.78670084  0.72486943    -0.20560
C1885       C  0.94313779  0.80448403  0.71828775    -0.07080
C1886       C  0.94067838  0.83219129  0.69857390     0.13780
C1887       C  0.97050275  0.85095816  0.68942890    -0.23910
H1888       H  0.90804358  0.86335564  0.67197973     0.15070
H1889       H  0.91812666  0.76436765  0.73857086     0.15100
C1890       C  0.86049372  0.76881970  0.71902994    -0.23860
H1891       H  0.96453466  0.87194436  0.67375054     0.05310
H1892       H  0.98756655  0.83492710  0.67618089     0.08530
H1893       H  0.98255967  0.86024434  0.71152267     0.08530
H1894       H  0.83598294  0.77224805  0.70949415     0.08520
H1895       H  0.85856141  0.76299714  0.74504279     0.08520
H1896       H  0.86954603  0.74660754  0.70676797     0.05290
C1897       C  0.81278061  0.89521402  0.68523301    -0.20510
C1898       C  0.84203493  0.88131493  0.69679220    -0.07080
C1899       C  0.85810129  0.90028130  0.72145761     0.13790
C1900       C  0.84325859  0.92897069  0.73385319    -0.20560
C1901       C  0.81318542  0.94076075  0.72292818    -0.07080
C1902       C  0.79829526  0.92356535  0.69743997     0.13780
C1903       C  0.76623119  0.93382191  0.68313590    -0.23910
H1904       H  0.79986707  0.88328910  0.66648225     0.15070
H1905       H  0.85543600  0.94248644  0.75270188     0.15100
C1906       C  0.89124294  0.89282756  0.73508341    -0.23860
H1907       H  0.75816104  0.91743144  0.66343955     0.05310
H1908       H  0.76837223  0.95847063  0.67263656     0.08530
H1909       H  0.74710118  0.93333033  0.70199532     0.08530
H1910       H  0.90990161  0.89720386  0.71639396     0.08520
H1911       H  0.89310948  0.86812099  0.74506585     0.08520
H1912       H  0.89769692  0.90923842  0.75534079     0.05290
C1913       C  0.83716295  0.40931733  0.17946201    -0.20510
C1914       C  0.85215288  0.38842882  0.20240230    -0.07080
C1915       C  0.85614568  0.40210444  0.23418068     0.13790
C1916       C  0.83960451  0.43052296  0.24266998    -0.20560
C1917       C  0.81956994  0.44709192  0.22124833    -0.07080
C1918       C  0.81968472  0.43733801  0.18862442     0.13780
C1919       C  0.80150817  0.45617127  0.16331737    -0.23910
H1920       H  0.83707780  0.40302456  0.15416448     0.15070
H1921       H  0.84095817  0.43897174  0.26742089     0.15100
C1922       C  0.87579980  0.38780012  0.26121864    -0.23860
H1923       H  0.80550233  0.44611101  0.13875885     0.05310
H1924       H  0.80976277  0.48178371  0.16331815     0.08530
H1925       H  0.77510112  0.45517264  0.16825724     0.08530
H1926       H  0.87994555  0.40552781  0.28099432     0.08520
H1927       H  0.90046588  0.38146856  0.25347018     0.08520
H1928       H  0.86218812  0.36811935  0.27285345     0.05290
C1929       C  0.80893541  0.34508297  0.15209752    -0.20510
C1930       C  0.84261279  0.34351075  0.15867093    -0.07080
C1931       C  0.86208036  0.33555584  0.13094966     0.13790
C1932       C  0.84818141  0.31914565  0.10449146    -0.20560
C1933       C  0.81455665  0.31605075  0.10132186    -0.07080
C1934       C  0.79473558  0.33139720  0.12452731     0.13780
C1935       C  0.75845039  0.33380111  0.12067787    -0.23910
H1936       H  0.79314969  0.35926576  0.16675981     0.15070
H1937       H  0.86364064  0.31097220  0.08492454     0.15100
C1938       C  0.89565848  0.34889626  0.12550070    -0.23860
H1939       H  0.74653510  0.34435478  0.14232894     0.05310
H1940       H  0.74802245  0.30940542  0.11667791     0.08530
H1941       H  0.75259670  0.34958697  0.09980657     0.08530
H1942       H  0.91420361  0.32986515  0.12959581     0.08520
H1943       H  0.90016064  0.37053762  0.14066220     0.08520
H1944       H  0.89812308  0.35757484  0.10023249     0.05290
C1945       C  0.80347588  0.33644376  0.22317398    -0.20510
C1946       C  0.83732211  0.33222146  0.22146806    -0.07080
C1947       C  0.85019266  0.31317610  0.24781713     0.13790
C1948       C  0.82859238  0.29642340  0.26767254    -0.20560
C1949       C  0.79604683  0.29010359  0.25930263    -0.07080
C1950       C  0.78276654  0.31379569  0.23805740     0.13780
C1951       C  0.74716030  0.31901040  0.23355082    -0.23910
H1952       H  0.79302170  0.35872204  0.21476826     0.15070
H1953       H  0.83783230  0.28821658  0.29063916     0.15100
C1954       C  0.88474513  0.31147463  0.26071759    -0.23860
H1955       H  0.74161895  0.34136867  0.21969113     0.05310
H1956       H  0.73553710  0.32120376  0.25711156     0.08530
H1957       H  0.73644654  0.29894103  0.22010348     0.08530
H1958       H  0.90175722  0.32908987  0.25135124     0.08520
H1959       H  0.89504757  0.28696732  0.25703432     0.08520
H1960       H  0.88494925  0.31629817  0.28712545     0.05290
C1961       C  0.91896167  0.35820910  0.20001078    -0.20510
C1962       C  0.89210572  0.33773964  0.19431340    -0.07080
C1963       C  0.89893209  0.30374423  0.18979277     0.13790
C1964       C  0.92972531  0.29154802  0.19739896    -0.20560
C1965       C  0.95357590  0.31132832  0.21086588    -0.07080
C1966       C  0.94919131  0.34539752  0.20968361     0.13780
C1967       C  0.97592792  0.36832845  0.21920862    -0.23910
H1968       H  0.91571697  0.38422573  0.19966017     0.15070
H1969       H  0.93368105  0.26556825  0.19645017     0.15100
C1970       C  0.87437096  0.27841973  0.17965789    -0.23860
H1971       H  0.96909270  0.39396596  0.21469099     0.05310
H1972       H  0.99806054  0.36291920  0.20492246     0.08530
H1973       H  0.98136308  0.36604913  0.24529987     0.08530
H1974       H  0.88124397  0.26865699  0.15562940     0.08520
H1975       H  0.84908179  0.28687260  0.17843417     0.08520
H1976       H  0.87457248  0.25804714  0.19701474     0.05290
C1977       C  0.19245374  0.41709222  0.86247673    -0.20510
C1978       C  0.18245532  0.39130768  0.84227448    -0.07080
C1979       C  0.18205427  0.39959861  0.80848051     0.13790
C1980       C  0.20195703  0.42454991  0.79684510    -0.20560
C1981       C  0.21829987  0.44571682  0.81740757    -0.07080
C1982       C  0.21189863  0.44299354  0.85089396     0.13780
C1983       C  0.22494178  0.46740611  0.87447296    -0.23910
H1984       H  0.18605178  0.41661530  0.88776651     0.15070
H1985       H  0.20337679  0.42843731  0.77097711     0.15100
C1986       C  0.15819483  0.38774894  0.78361403    -0.23860
H1987       H  0.21672464  0.46235304  0.89950378     0.05310
H1988       H  0.21640829  0.49190808  0.86768135     0.08530
H1989       H  0.25182091  0.46681916  0.87433121     0.08530
H1990       H  0.14386185  0.40871920  0.77473126     0.08520
H1991       H  0.14032827  0.37025925  0.79205702     0.08520
H1992       H  0.17138353  0.37769224  0.76263878     0.05290
C1993       C  0.14380778  0.30465131  0.84896166    -0.20510
C1994       C  0.14509065  0.33910094  0.84962655    -0.07080
C1995       C  0.11542046  0.35559158  0.84319750     0.13790
C1996       C  0.08967492  0.33859282  0.82832710    -0.20560
C1997       C  0.09075835  0.30480194  0.82377187    -0.07080
C1998       C  0.11743470  0.28751106  0.83625265     0.13780
C1999       C  0.11920322  0.25101327  0.83496083    -0.23910
H2000       H  0.16480024  0.29099163  0.85683150     0.15070
H2001       H  0.06810393  0.35173280  0.82114443     0.15100
C2002       C  0.10937392  0.39035131  0.85248423    -0.23860
H2003       H  0.14260735  0.24171736  0.84441490     0.05310
H2004       H  0.11675547  0.24250817  0.80969992     0.08530
H2005       H  0.09959695  0.24040095  0.84993519     0.08530
H2006       H  0.10808984  0.40582456  0.83063387     0.08520
H2007       H  0.12784581  0.39972499  0.86937727     0.08520
H2008       H  0.08591735  0.39209400  0.86553423     0.05290
C2009       C  0.19315529  0.32455714  0.80310809    -0.20510
C2010       C  0.20426391  0.33528849  0.83385595    -0.07080
C2011       C  0.23789562  0.32883002  0.83994045     0.13790
C2012       C  0.25447217  0.30662184  0.82031475    -0.20560
C2013       C  0.24338187  0.29837087  0.78919801    -0.07080
C2014       C  0.21337321  0.31167141  0.77953556     0.13780
C2015       C  0.20468856  0.31949621  0.74488695    -0.23910
H2016       H  0.16854860  0.32796021  0.79578405     0.15070
H2017       H  0.27886665  0.30003210  0.82731697     0.15100
C2018       C  0.26015427  0.34973771  0.85965840    -0.23860
H2019       H  0.17950965  0.32851437  0.74251593     0.05310
H2020       H  0.20581636  0.29895138  0.72868153     0.08530
H2021       H  0.22111535  0.33843264  0.73535876     0.08530
H2022       H  0.26271742  0.33973177  0.88415560     0.08520
H2023       H  0.25319108  0.37553626  0.85746329     0.08520
H2024       H  0.28544991  0.34931648  0.85059606     0.05290
C2025       C  0.21412600  0.36471988  0.90904802    -0.20510
C2026       C  0.18706776  0.35028473  0.89372432    -0.07080
C2027       C  0.17038740  0.32778467  0.91436990     0.13790
C2028       C  0.18765579  0.31081888  0.93838027    -0.20560
C2029       C  0.21844362  0.32099963  0.94844602    -0.07080
C2030       C  0.22987032  0.35078669  0.93585792     0.13780
C2031       C  0.25963075  0.36764483  0.94886824    -0.23910
H2032       H  0.22583210  0.38552061  0.89911368     0.15070
H2033       H  0.17565117  0.29137657  0.95128195     0.15100
C2034       C  0.13400663  0.32714414  0.91830630    -0.23860
H2035       H  0.26392593  0.39138751  0.93699880     0.05310
H2036       H  0.28149573  0.35260704  0.94445828     0.08530
H2037       H  0.25662276  0.37238838  0.97508337     0.08530
H2038       H  0.12388689  0.30368596  0.90997104     0.08520
H2039       H  0.12210671  0.34783284  0.90626398     0.08520
H2040       H  0.12769947  0.32991492  0.94424928     0.05290
C2041       C  0.84032320  0.61834553  0.86049082    -0.20510
C2042       C  0.84904138  0.64496321  0.84062236    -0.07080
C2043       C  0.85575902  0.63688660  0.80733035     0.13790
C2044       C  0.84439477  0.60727215  0.79473321    -0.20560
C2045       C  0.82642018  0.58558749  0.81358915    -0.07080
C2046       C  0.82688958  0.58982738  0.84740236     0.13780
C2047       C  0.81326777  0.56457621  0.86991055    -0.23910
H2048       H  0.84055542  0.62069541  0.88644454     0.15070
H2049       H  0.84691624  0.60268108  0.76907342     0.15100
C2050       C  0.87200410  0.65875379  0.78275031    -0.23860
H2051       H  0.81786849  0.57075024  0.89559972     0.05310
H2052       H  0.82471460  0.54073237  0.86489338     0.08530
H2053       H  0.78664525  0.56271092  0.86685421     0.08530
H2054       H  0.89549032  0.64786586  0.77540843     0.08520
H2055       H  0.87650274  0.68373912  0.79088323     0.08520
H2056       H  0.85662379  0.66085531  0.76086862     0.05290
C2057       C  0.80818999  0.72812628  0.78886428    -0.20510
C2058       C  0.78357399  0.74760951  0.80272763    -0.07080
C2059       C  0.78078921  0.74482837  0.83742856     0.13790
C2060       C  0.80343989  0.72513940  0.85356129    -0.20560
C2061       C  0.82264955  0.70166842  0.83714003    -0.07080
C2062       C  0.81602998  0.69922475  0.80395123     0.13780
C2063       C  0.79353748  0.67252264  0.79239911    -0.23910
H2064       H  0.81518507  0.73041311  0.76409568     0.15070
H2065       H  0.80634376  0.72949903  0.87905121     0.15100
C2066       C  0.75821973  0.76283714  0.85999891    -0.23860
H2067       H  0.76787534  0.67977776  0.79625251     0.05310
H2068       H  0.79612232  0.64947667  0.80538950     0.08530
H2069       H  0.79715819  0.66801148  0.76620549     0.08530
H2070       H  0.73393753  0.76783928  0.85028124     0.08520
H2071       H  0.77014888  0.78526048  0.86874826     0.08520
H2072       H  0.75331533  0.74782155  0.88167606     0.05290
C2073       C  0.79632567  0.68735874  0.93213551    -0.20510
C2074       C  0.81568756  0.70826874  0.95035470    -0.07080
C2075       C  0.84925310  0.70938465  0.94332273     0.13790
C2076       C  0.86109239  0.69410818  0.91515905    -0.20560
C2077       C  0.83975946  0.68094727  0.89186674    -0.07080
C2078       C  0.80728900  0.67399284  0.90294604     0.13780
C2079       C  0.78113210  0.65761698  0.88324511    -0.23910
H2080       H  0.77103360  0.68436618  0.93863990     0.15070
H2081       H  0.88664661  0.69625189  0.90982599     0.15100
C2082       C  0.87272235  0.72710890  0.96486346    -0.23860
H2083       H  0.76003489  0.67415062  0.88059537     0.05310
H2084       H  0.77300878  0.63530158  0.89582890     0.08530
H2085       H  0.78846203  0.65096967  0.85872755     0.08530
H2086       H  0.87037674  0.71813093  0.99001595     0.08520
H2087       H  0.86796528  0.75354737  0.96412666     0.08520
H2088       H  0.89821233  0.72336682  0.95707118     0.05290
C2089       C  0.92039008  0.74215145  0.83548315    -0.20510
C2090       C  0.94398036  0.72139141  0.82286142    -0.07080
C2091       C  0.94012571  0.68776217  0.82817364     0.13790
C2092       C  0.91134014  0.67602219  0.84257931    -0.20560
C2093       C  0.88430231  0.69640515  0.84919937    -0.07080
C2094       C  0.89135917  0.73054510  0.84931077     0.13780
C2095       C  0.86977236  0.75604310  0.86377844    -0.23910
H2096       H  0.92412916  0.76807997  0.83339628     0.15070
H2097       H  0.90937692  0.65019102  0.84648153     0.15100
C2098       C  0.96621879  0.66397217  0.81883669    -0.23860
H2099       H  0.88292829  0.77917475  0.86786249     0.05310
H2100       H  0.86003627  0.74892665  0.88748276     0.08530
H2101       H  0.85044336  0.76166040  0.84680314     0.08530
H2102       H  0.98944973  0.67087945  0.83046209     0.08520
H2103       H  0.96926294  0.66357881  0.79224034     0.08520
H2104       H  0.96014406  0.63892052  0.82653527     0.05290
C2105       C  0.41432824  0.17923121  0.83370598    -0.20510
C2106       C  0.39099328  0.20148589  0.84546956    -0.07080
C2107       C  0.40363781  0.23259226  0.85523996     0.13790
C2108       C  0.43465210  0.24232354  0.84466674    -0.20560
C2109       C  0.45338485  0.22276260  0.82435779    -0.07080
C2110       C  0.44445834  0.18970654  0.82138894     0.13780
C2111       C  0.46593429  0.16533148  0.80467024    -0.23910
H2112       H  0.40815726  0.15397987  0.83094818     0.15070
H2113       H  0.44264960  0.26689915  0.84931870     0.15100
C2114       C  0.38466503  0.25771792  0.87385114    -0.23860
H2115       H  0.45657840  0.14024361  0.80741683     0.05310
H2116       H  0.49064804  0.16613127  0.81521211     0.08530
H2117       H  0.46707493  0.17039019  0.77841867     0.08530
H2118       H  0.37850440  0.24854890  0.89820308     0.08520
H2119       H  0.36286359  0.26511164  0.86025634     0.08520
H2120       H  0.39879987  0.28025747  0.87789094     0.05290
C2121       C  0.32703991  0.13626305  0.85710388    -0.20510
C2122       C  0.34610470  0.15573638  0.83594625    -0.07080
C2123       C  0.35190573  0.14195639  0.80447367     0.13790
C2124       C  0.33957500  0.11135575  0.79631224    -0.20560
C2125       C  0.31938094  0.09370391  0.81688623    -0.07080
C2126       C  0.31384098  0.10602976  0.84820283     0.13780
C2127       C  0.29354827  0.08792325  0.87255576    -0.23910
H2128       H  0.31962150  0.14520482  0.88029079     0.15070
H2129       H  0.34409817  0.10222735  0.77215727     0.15100
C2130       C  0.36884582  0.15859371  0.77690567    -0.23860
H2131       H  0.29373437  0.09988084  0.89658517     0.05310
H2132       H  0.30321021  0.06300441  0.87572467     0.08530
H2133       H  0.26795065  0.08691650  0.86446800     0.08530
H2134       H  0.38992692  0.14385130  0.76895573     0.08520
H2135       H  0.37779638  0.18245083  0.78294356     0.08520
H2136       H  0.35184681  0.16144153  0.75631887     0.05290
C2137       C  0.32202396  0.26169704  0.78870354    -0.20510
C2138       C  0.28833469  0.25573037  0.78771699    -0.07080
C2139       C  0.27797324  0.22876431  0.80702751     0.13790
C2140       C  0.30059792  0.20522619  0.81650616    -0.20560
C2141       C  0.33422008  0.21192329  0.81798503    -0.07080
C2142       C  0.34479425  0.23948496  0.80013536     0.13780
C2143       C  0.37879252  0.24767074  0.79016047    -0.23910
H2144       H  0.33180209  0.28441980  0.78019675     0.15070
H2145       H  0.29131554  0.18487184  0.83018536     0.15100
C2146       C  0.24718523  0.22732220  0.82702987    -0.23860
H2147       H  0.37925435  0.25485924  0.76429173     0.05310
H2148       H  0.39657408  0.22817396  0.79171064     0.08530
H2149       H  0.38658388  0.26842240  0.80497055     0.08530
H2150       H  0.23278595  0.24973148  0.82735117     0.08520
H2151       H  0.25328029  0.22341205  0.85283874     0.08520
H2152       H  0.23217873  0.20636096  0.81950062     0.05290
C2153       C  0.31646067  0.22793253  0.88190275    -0.20510
C2154       C  0.33944278  0.20228977  0.87919639    -0.07080
C2155       C  0.35007478  0.18844107  0.90922559     0.13790
C2156       C  0.33589475  0.19858241  0.93875305    -0.20560
C2157       C  0.31175961  0.22249210  0.93964331    -0.07080
C2158       C  0.30231248  0.23745812  0.91086254     0.13780
C2159       C  0.27785875  0.26477165  0.91060344    -0.23910
H2160       H  0.31062970  0.24319461  0.86176409     0.15070
H2161       H  0.34408557  0.18803937  0.96127437     0.15100
C2162       C  0.37616021  0.16296076  0.91165299    -0.23860
H2163       H  0.27279493  0.27376692  0.88586745     0.05310
H2164       H  0.28716542  0.28551005  0.92490416     0.08530
H2165       H  0.25459382  0.25621553  0.92099801     0.08530
H2166       H  0.38556500  0.15481079  0.88810991     0.08520
H2167       H  0.36632713  0.14126580  0.92412293     0.08520
H2168       H  0.39677904  0.17262665  0.92590427     0.05290
C2169       C  0.63021964  0.86261357  0.81666781    -0.20510
C2170       C  0.64192379  0.85355295  0.84732512    -0.07080
C2171       C  0.61982528  0.83474141  0.86617319     0.13790
C2172       C  0.59560696  0.81619857  0.85059430    -0.20560
C2173       C  0.58914166  0.81990387  0.81751059    -0.07080
C2174       C  0.60552700  0.84534233  0.80094386     0.13780
C2175       C  0.59906663  0.85368468  0.76602684    -0.23910
H2176       H  0.64184045  0.88194392  0.80362499     0.15070
H2177       H  0.58046027  0.80017263  0.86480832     0.15100
C2178       C  0.61700800  0.83788713  0.90231499    -0.23860
H2179       H  0.61565890  0.87280144  0.75690361     0.05310
H2180       H  0.57402410  0.86307383  0.76325335     0.08530
H2181       H  0.60280665  0.83194572  0.75063494     0.08530
H2182       H  0.63274322  0.85724396  0.91215649     0.08520
H2183       H  0.62223113  0.81435693  0.91418578     0.08520
H2184       H  0.59181806  0.84497302  0.90863066     0.05290
C2185       C  0.68600601  0.81004201  0.81369917    -0.20510
C2186       C  0.70030797  0.83308112  0.83456100    -0.07080
C2187       C  0.73491566  0.83463415  0.83519920     0.13790
C2188       C  0.75248830  0.81517915  0.81440658    -0.20560
C2189       C  0.73856849  0.79196975  0.79410424    -0.07080
C2190       C  0.70433724  0.79437483  0.78992051     0.13780
C2191       C  0.68620555  0.78769488  0.75888579    -0.23910
H2192       H  0.66009139  0.80750639  0.81220509     0.15070
H2193       H  0.77785243  0.81630857  0.81685107     0.15100
C2194       C  0.75490258  0.85535863  0.85808830    -0.23860
H2195       H  0.67456509  0.81033325  0.75026393     0.05310
H2196       H  0.66655403  0.76980639  0.76289788     0.08530
H2197       H  0.70173315  0.77964092  0.73898422     0.08530
H2198       H  0.75368108  0.84530004  0.88273167     0.08520
H2199       H  0.74790797  0.88108204  0.85767046     0.08520
H2200       H  0.78108868  0.85528207  0.85185148     0.05290
C2201       C  0.68138881  0.92189229  0.85395903    -0.20510
C2202       C  0.69019121  0.89203772  0.83967413    -0.07080
C2203       C  0.70718447  0.89549297  0.80912345     0.13790
C2204       C  0.72613085  0.92254698  0.80353128    -0.20560
C2205       C  0.72129731  0.95075241  0.82076176    -0.07080
C2206       C  0.69716855  0.95132562  0.84508627     0.13780
C2207       C  0.68838948  0.98259934  0.86146638    -0.23910
H2208       H  0.66262205  0.92217751  0.87213302     0.15070
H2209       H  0.74158792  0.92310905  0.78223713     0.15100
C2210       C  0.70290302  0.87513772  0.77890275    -0.23860
H2211       H  0.66928408  0.97894741  0.88000653     0.05310
H2212       H  0.67929867  0.00019242  0.84334352     0.08530
H2213       H  0.71013685  0.99285617  0.87347566     0.08530
H2214       H  0.68222319  0.85862688  0.77957362     0.08520
H2215       H  0.72555200  0.86185977  0.77308598     0.08520
H2216       H  0.69741083  0.89121022  0.75808006     0.05290
C2217       C  0.68482300  0.81264413  0.89593184    -0.20510
C2218       C  0.68885403  0.84657143  0.89003190    -0.07080
C2219       C  0.70472583  0.86419729  0.91557501     0.13790
C2220       C  0.71902398  0.84705451  0.94169777    -0.20560
C2221       C  0.71700357  0.81324830  0.94490286    -0.07080
C2222       C  0.69823582  0.79611842  0.92229475     0.13780
C2223       C  0.69320878  0.75996371  0.92471342    -0.23910
H2224       H  0.67201915  0.79811390  0.87831235     0.15070
H2225       H  0.73236327  0.86027775  0.95998547     0.15100
C2226       C  0.70788932  0.90042664  0.91705235    -0.23860
H2227       H  0.67958425  0.75016851  0.90375615     0.05310
H2228       H  0.67905747  0.75425919  0.94677435     0.08530
H2229       H  0.71691256  0.74731040  0.92566355     0.08530
H2230       H  0.68353569  0.91150504  0.91848340     0.08520
H2231       H  0.72263024  0.90963273  0.89682599     0.08520
H2232       H  0.72066444  0.90863197  0.93918176     0.05290
C2233       C  0.41767235  0.84648870  0.17693224    -0.20510
C2234       C  0.39397569  0.85656283  0.19964346    -0.07080
C2235       C  0.40438655  0.85943250  0.23255658     0.13790
C2236       C  0.43350362  0.84512039  0.24206772    -0.20560
C2237       C  0.45356799  0.82902874  0.22011351    -0.07080
C2238       C  0.44681480  0.83171807  0.18680427     0.13780
C2239       C  0.46962209  0.81844470  0.16165134    -0.23910
H2240       H  0.41246746  0.84761990  0.15138484     0.15070
H2241       H  0.43951242  0.84487114  0.26755972     0.15100
C2242       C  0.38558288  0.87544208  0.25942629    -0.23860
H2243       H  0.46149903  0.82454443  0.13683809     0.05310
H2244       H  0.47084490  0.79165276  0.16332952     0.08530
H2245       H  0.49416249  0.82888423  0.16517668     0.08530
H2246       H  0.37677773  0.85680879  0.27667171     0.08520
H2247       H  0.36515134  0.89009753  0.25115129     0.08520
H2248       H  0.40167950  0.89250062  0.27258120     0.05290
C2249       C  0.32026628  0.84426357  0.10330774    -0.20510
C2250       C  0.32346755  0.81060227  0.09992173    -0.07080
C2251       C  0.34502138  0.79456645  0.12110004     0.13790
C2252       C  0.35775441  0.81135686  0.14768483    -0.20560
C2253       C  0.35072253  0.84405715  0.15449518    -0.07080
C2254       C  0.33668860  0.86138254  0.12783970     0.13780
C2255       C  0.34355126  0.89654266  0.12044690    -0.23910
H2256       H  0.30742068  0.85773217  0.08484628     0.15070
H2257       H  0.37513111  0.79895711  0.16185168     0.15100
C2258       C  0.35505270  0.75977527  0.11638894    -0.23860
H2259       H  0.35153071  0.89891852  0.09493438     0.05310
H2260       H  0.36389410  0.90623595  0.13479110     0.08530
H2261       H  0.32137953  0.91143844  0.12361892     0.08530
H2262       H  0.36798876  0.75698021  0.09305468     0.08520
H2263       H  0.33341509  0.74412583  0.11698583     0.08520
H2264       H  0.37165906  0.75121571  0.13567118     0.05290
C2265       C  0.31598314  0.85123434  0.23770535    -0.20510
C2266       C  0.33855043  0.83673952  0.21596425    -0.07080
C2267       C  0.34337840  0.80285277  0.22175216     0.13790
C2268       C  0.31922875  0.78517701  0.23729745    -0.20560
C2269       C  0.29423550  0.79938645  0.25580426    -0.07080
C2270       C  0.29483703  0.83393115  0.25792200     0.13780
C2271       C  0.27426220  0.85465049  0.28004759    -0.23910
H2272       H  0.31517109  0.87706227  0.24065387     0.15070
H2273       H  0.32110717  0.75919520  0.23560282     0.15100
C2274       C  0.37443401  0.78365632  0.21821798    -0.23860
H2275       H  0.28579388  0.87849529  0.28487881     0.05310
H2276       H  0.27138850  0.84392070  0.30410799     0.08530
H2277       H  0.25070167  0.86015614  0.26848088     0.08530
H2278       H  0.39533483  0.79719029  0.20956937     0.08520
H2279       H  0.37046828  0.76240674  0.20219724     0.08520
H2280       H  0.38172463  0.77424400  0.24228198     0.05290
C2281       C  0.34435425  0.94906057  0.21205319    -0.20510
C2282       C  0.31041902  0.94955888  0.21308280    -0.07080
C2283       C  0.29301263  0.92426266  0.19796908     0.13790
C2284       C  0.30997206  0.89736036  0.18623976    -0.20560
C2285       C  0.34382600  0.89379744  0.19092597    -0.07080
C2286       C  0.36134330  0.92257191  0.19900910     0.13780
C2287       C  0.39698570  0.92758350  0.19281258    -0.23910
H2288       H  0.35774582  0.96981813  0.22099571     0.15070
H2289       H  0.29614934  0.87680356  0.17753137     0.15100
C2290       C  0.25646532  0.92359406  0.19688667    -0.23860
H2291       H  0.40088028  0.95200519  0.18222821     0.05310
H2292       H  0.40674153  0.91054121  0.17467153     0.08530
H2293       H  0.41080707  0.92616763  0.21572060     0.08530
H2294       H  0.24735573  0.94405759  0.18209414     0.08520
H2295       H  0.24651693  0.92520491  0.22175034     0.08520
H2296       H  0.24711902  0.90088197  0.18589778     0.05290
C2297       C  0.40589712  0.81345995  0.86756193    -0.20510
C2298       C  0.39604859  0.84451041  0.85731350    -0.07080
C2299       C  0.42107073  0.86242156  0.84108215     0.13790
C2300       C  0.44517082  0.84538116  0.82377487    -0.20560
C2301       C  0.44893069  0.81169669  0.82676928    -0.07080
C2302       C  0.43063153  0.79612348  0.85138298     0.13780
C2303       C  0.43558398  0.76098879  0.85993449    -0.23910
H2304       H  0.39202675  0.80129849  0.88614646     0.15070
H2305       H  0.46200655  0.85883030  0.80879671     0.15100
C2306       C  0.42595944  0.89865228  0.84345784    -0.23860
H2307       H  0.41843798  0.75282271  0.87894219     0.05310
H2308       H  0.46050055  0.75728846  0.86929455     0.08530
H2309       H  0.43150801  0.74559077  0.83832300     0.08530
H2310       H  0.40923215  0.91095937  0.86019386     0.08520
H2311       H  0.42426166  0.91001507  0.81927380     0.08520
H2312       H  0.45064872  0.90346730  0.85296637     0.05290
C2313       C  0.29318434  0.82708962  0.79790343    -0.20510
C2314       C  0.29744862  0.79328157  0.79624718    -0.07080
C2315       C  0.31851440  0.77935606  0.81983178     0.13790
C2316       C  0.34087467  0.79948884  0.83529944    -0.20560
C2317       C  0.33778555  0.83363705  0.83565433    -0.07080
C2318       C  0.30858883  0.84561443  0.82102648     0.13780
C2319       C  0.28743835  0.87254035  0.83452659    -0.23910
H2320       H  0.27349651  0.83893396  0.78558160     0.15070
H2321       H  0.35720420  0.78748635  0.85108758     0.15100
C2322       C  0.31856048  0.74383184  0.82963718    -0.23860
H2323       H  0.26165711  0.86478142  0.83528752     0.05310
H2324       H  0.28846230  0.89417383  0.81882741     0.08530
H2325       H  0.29281005  0.87825461  0.85995154     0.08530
H2326       H  0.33941036  0.73767388  0.84540976     0.08520
H2327       H  0.32009183  0.72734137  0.80870000     0.08520
H2328       H  0.29662689  0.73828697  0.84401216     0.05290
C2329       C  0.31552175  0.82686076  0.89695441    -0.20510
C2330       C  0.34425330  0.84608642  0.89478469    -0.07080
C2331       C  0.35966358  0.85257919  0.92509107     0.13790
C2332       C  0.34795626  0.83768478  0.95392272    -0.20560
C2333       C  0.32197370  0.81554303  0.95323748    -0.07080
C2334       C  0.30661603  0.80938858  0.92399117     0.13780
C2335       C  0.28108519  0.78323466  0.92072210    -0.23910
H2336       H  0.29950902  0.82329485  0.87703289     0.15070
H2337       H  0.35946253  0.84302249  0.97681882     0.15100
C2338       C  0.38789254  0.87525402  0.92849631    -0.23860
H2339       H  0.27302851  0.77975062  0.89542044     0.05310
H2340       H  0.25950056  0.78946708  0.93540498     0.08530
H2341       H  0.29129245  0.75975354  0.92888719     0.08530
H2342       H  0.38156455  0.89486536  0.94577044     0.08520
H2343       H  0.39453417  0.88685756  0.90557400     0.08520
H2344       H  0.40924376  0.86181945  0.93776144     0.05290
C2345       C  0.34079097  0.91422649  0.86874677    -0.20510
C2346       C  0.35403197  0.89032357  0.84800443    -0.07080
C2347       C  0.35739994  0.89895718  0.81436119     0.13790
C2348       C  0.34428779  0.92806405  0.80304016    -0.20560
C2349       C  0.32578831  0.94841177  0.82276924    -0.07080
C2350       C  0.32551758  0.94235735  0.85645322     0.13780
C2351       C  0.30842431  0.96479282  0.87956148    -0.23910
H2352       H  0.33875376  0.90934970  0.89427062     0.15070
H2353       H  0.34573511  0.93307180  0.77737809     0.15100
C2354       C  0.37095053  0.87722230  0.78794581    -0.23860
H2355       H  0.31235695  0.95753255  0.90506779     0.05310
H2356       H  0.28193114  0.96430417  0.87510953     0.08530
H2357       H  0.31772151  0.98985869  0.87653381     0.08530
H2358       H  0.37981824  0.85338386  0.79595984     0.08520
H2359       H  0.39133567  0.88966344  0.77561379     0.08520
H2360       H  0.35179015  0.87244064  0.76973450     0.05290
C2361       C  0.87194937  0.41553698  0.83643942    -0.20510
C2362       C  0.85270452  0.39760571  0.85825619    -0.07080
C2363       C  0.82576438  0.41545840  0.87041134     0.13790
C2364       C  0.81075539  0.43853553  0.85053257    -0.20560
C2365       C  0.82519110  0.44872567  0.82147372    -0.07080
C2366       C  0.85795083  0.43955810  0.81636424     0.13780
C2367       C  0.87813860  0.45414967  0.78981647    -0.23910
H2368       H  0.89679573  0.40853589  0.83224471     0.15070
H2369       H  0.78839441  0.44958052  0.85876679     0.15100
C2370       C  0.81740088  0.41726547  0.90581520    -0.23860
H2371       H  0.90349349  0.44514168  0.79041887     0.05310
H2372       H  0.87882960  0.48091384  0.79253361     0.08530
H2373       H  0.86783386  0.44758973  0.76596049     0.08530
H2374       H  0.83511938  0.40449616  0.92117298     0.08520
H2375       H  0.81827360  0.44296648  0.91379416     0.08520
H2376       H  0.79252021  0.40823119  0.91034967     0.05290
C2377       C  0.81093043  0.35736846  0.81609723    -0.20510
C2378       C  0.83312439  0.34075263  0.83595964    -0.07080
C2379       C  0.83394977  0.30626913  0.83302271     0.13790
C2380       C  0.81631208  0.29135415  0.80876087    -0.20560
C2381       C  0.79210376  0.30723962  0.79082321    -0.07080
C2382       C  0.78795589  0.34130843  0.79705478     0.13780
C2383       C  0.76029208  0.36310572  0.78672156    -0.23910
H2384       H  0.80906496  0.38329450  0.81754093     0.15070
H2385       H  0.82191994  0.26636072  0.80399526     0.15100
C2386       C  0.85252157  0.28318037  0.85449793    -0.23860
H2387       H  0.76951301  0.38263388  0.77075396     0.05310
H2388       H  0.74966828  0.37485692  0.80844039     0.08530
H2389       H  0.73994216  0.35138778  0.77480136     0.08530
H2390       H  0.86058189  0.29362593  0.87746144     0.08520
H2391       H  0.87363461  0.27319351  0.84114658     0.08520
H2392       H  0.83651572  0.26271040  0.86156308     0.05290
C2393       C  0.91154319  0.32820724  0.86821358    -0.20510
C2394       C  0.89036290  0.34682958  0.84823999    -0.07080
C2395       C  0.90049708  0.34875066  0.81453910     0.13790
C2396       C  0.92846411  0.33282092  0.80378158    -0.20560
C2397       C  0.94713692  0.31312467  0.82357691    -0.07080
C2398       C  0.93909898  0.31152039  0.85654080     0.13780
C2399       C  0.95916824  0.29181492  0.87978340    -0.23910
H2400       H  0.90581351  0.32270667  0.89259350     0.15070
H2401       H  0.93469675  0.33434743  0.77835657     0.15100
C2402       C  0.88319622  0.36529590  0.78672495    -0.23860
H2403       H  0.95092439  0.29483511  0.90513498     0.05310
H2404       H  0.98488277  0.29964755  0.87853410     0.08530
H2405       H  0.95729245  0.26567031  0.87380647     0.08530
H2406       H  0.89948467  0.38384430  0.77603716     0.08520
H2407       H  0.86056135  0.37758254  0.79219441     0.08520
H2408       H  0.87778825  0.34741463  0.76756673     0.05290
C2409       C  0.79771559  0.33334785  0.93241638    -0.20510
C2410       C  0.81959035  0.32258831  0.95535420    -0.07080
C2411       C  0.85249020  0.33075203  0.95103670     0.13790
C2412       C  0.86214089  0.34691526  0.92232562    -0.20560
C2413       C  0.84170685  0.34843337  0.89478621    -0.07080
C2414       C  0.80744512  0.34343195  0.90176370     0.13780
C2415       C  0.77910121  0.34855781  0.87900039    -0.23910
H2416       H  0.77210472  0.33147361  0.93774735     0.15070
H2417       H  0.88578209  0.35816671  0.92155052     0.15100
C2418       C  0.87690015  0.32408388  0.97709341    -0.23860
H2419       H  0.75525763  0.34843022  0.89146638     0.05310
H2420       H  0.77997176  0.37240542  0.86710491     0.08530
H2421       H  0.77748826  0.32815990  0.86176351     0.08530
H2422       H  0.87875126  0.29758930  0.98128244     0.08520
H2423       H  0.86934335  0.33624319  0.99980660     0.08520
H2424       H  0.90133911  0.33310000  0.97033716     0.05290
loop_ 
_geom_bond_atom_site_label_1 
_geom_bond_atom_site_label_2 
_geom_bond_distance 
_geom_bond_site_symmetry_2 
_ccdc_geom_bond_type 
C1         C2362   1.596       .  S
C1         C2378   1.555       .  S
C1         C2394   1.613       .  S
C1         C2413   1.597       .  S
C2         C2298   1.598       .  S
C2         C2317   1.578       .  S
C2         C2330   1.604       .  S
C2         C2346   1.569       .  S
C3         C2234   1.560       .  S
C3         C2253   1.601       .  S
C3         C2266   1.606       .  S
C3         C2285   1.571       .  S
C4         C2170   1.588       .  S
C4         C2186   1.559       .  S
C4         C2202   1.598       .  S
C4         C2218   1.602       .  S
C5         C2106   1.584       .  S
C5         C2122   1.598       .  S
C5         C2141   1.582       .  S
C5         C2154   1.593       .  S
C6         C2042   1.589       .  S
C6         C2061   1.582       .  S
C6         C2077   1.583       .  S
C6         C2093   1.597       .  S
C7         C1978   1.601       .  S
C7         C1994   1.580       .  S
C7         C2010   1.598       .  S
C7         C2026   1.617       .  S
C8         C1914   1.591       .  S
C8         C1930   1.610       .  S
C8         C1946   1.591       .  S
C8         C1962   1.560       .  S
C9         C1850   1.589       .  S
C9         C1866   1.563       .  S
C9         C1882   1.592       .  S
C9         C1898   1.609       .  S
C10        C1786   1.588       .  S
C10        C1802   1.562       .  S
C10        C1821   1.582       .  S
C10        C1834   1.605       .  S
C11        C1722   1.575       .  S
C11        C1738   1.625       .  S
C11        C1754   1.600       .  S
C11        C1770   1.574       .  S
C12        C1661   1.567       .  S
C12        C1677   1.593       .  S
C12        C1690   1.585       .  S
C12        C1709   1.598       .  S
C13        C1594   1.596       .  S
C13        C1613   1.577       .  S
C13        C1626   1.575       .  S
C13        C1642   1.594       .  S
C14        C1530   1.601       .  S
C14        C1546   1.606       .  S
C14        C1565   1.579       .  S
C14        C1578   1.586       .  S
C15        C1466   1.598       .  S
C15        C1482   1.591       .  S
C15        C1498   1.594       .  S
C15        C1517   1.574       .  S
C16        C1402   1.591       .  S
C16        C1421   1.583       .  S
C16        C1434   1.584       .  S
C16        C1453   1.583       .  S
O17         Cu25   1.993       .  S
O17          C27   1.277       .  A
O18         Cu25   1.993       .  S
O18          C28   1.275       .  A
O19         Cu25   2.008       .  S
O19          C29   1.280       .  A
O20         Cu25   2.000       .  S
O20          C30   1.277       .  A
O21         Cu26   2.026       .  S
O21          C30   1.279       .  A
O22         Cu26   2.035       .  S
O22          C29   1.279       .  A
O23         Cu26   2.009       .  S
O23          C28   1.278       .  A
O24         Cu26   2.016       .  S
O24          C27   1.278       .  A
Cu25        Cu26   2.364       .  S
C27        C2237   1.482       .  S
C28        C1370   1.483       .  S
C29        C1533   1.507       .  S
C30        C1386   1.490       .  S
O31         Cu39   1.982       .  S
O31          C41   1.274       .  A
O32         Cu39   1.969       .  S
O32          C42   1.269       .  A
O33         Cu39   2.042       .  S
O33          C43   1.285       .  A
O34         Cu39   2.050       .  S
O34          C44   1.284       .  A
O35         Cu40   2.022       .  S
O35          C44   1.277       .  A
O36         Cu40   2.022       .  S
O36          C43   1.276       .  A
O37         Cu40   2.079       .  S
O37          C42   1.288       .  A
O38         Cu40   2.082       .  S
O38          C41   1.287       .  A
Cu39        Cu40   2.358       .  S
C41        C1338   1.503       .  S
C42        C2173   1.504       .  S
C43        C1354   1.501       .  S
C44        C2301   1.509       .  S
O45         Cu53   2.004       .  S
O45          C55   1.278       .  A
O46         Cu53   2.020       .  S
O46          C56   1.278       .  A
O47         Cu53   2.006       .  S
O47          C57   1.280       .  A
O48         Cu53   2.018       .  S
O48          C58   1.279       .  A
O49         Cu54   2.010       .  S
O49          C58   1.277       .  A
O50         Cu54   2.009       .  S
O50          C57   1.274       .  A
O51         Cu54   2.034       .  S
O51          C56   1.283       .  A
O52         Cu54   2.014       .  S
O52          C55   1.278       .  A
Cu53        Cu54   2.366       .  S
C55        C1322   1.497       .  S
C56        C1469   1.503       .  S
C57        C1306   1.467       .  S
C58        C1290   1.489       .  S
C59        C1229   1.585       .  S
C59        C1245   1.592       .  S
C59        C1261   1.572       .  S
C59        C1274   1.574       .  S
C60        C1178   1.580       .  S
C60        C1197   1.584       .  S
C60        C1210   1.577       .  S
C60        C1325   1.586       .  S
O61         Cu69   2.035       .  S
O61          C71   1.280       .  A
O62         Cu69   2.022       .  S
O62          C72   1.282       .  A
O63         Cu69   1.980       .  S
O63          C73   1.271       .  A
O64         Cu69   1.970       .  S
O64          C74   1.274       .  A
O65         Cu70   2.036       .  S
O65          C74   1.280       .  A
O66         Cu70   2.047       .  S
O66          C73   1.285       .  A
O67         Cu70   1.997       .  S
O67          C72   1.273       .  A
O68         Cu70   1.993       .  S
O68          C71   1.278       .  A
Cu69        Cu70   2.370       .  S
C71        C1917   1.494       .  S
C72        C1162   1.471       .  S
C73        C1725   1.488       .  S
C74        C1194   1.474       .  S
C75        C1130   1.606       .  S
C75        C1146   1.560       .  S
C75        C1165   1.593       .  S
C75        C1373   1.579       .  S
C76        C1114   1.564       .  S
C76        C1149   1.581       .  S
C76        C1562   1.573       .  S
C76        C1757   1.547       .  S
O77         Cu85   1.986       .  S
O77          C87   1.275       .  A
O78         Cu85   1.993       .  S
O78          C88   1.275       .  A
O79         Cu85   2.037       .  S
O79          C89   1.280       .  A
O80         Cu85   2.025       .  S
O80          C90   1.282       .  A
O81         Cu86   2.021       .  S
O81          C90   1.277       .  A
O82         Cu86   2.017       .  S
O82          C89   1.279       .  A
O83         Cu86   2.029       .  S
O83          C88   1.280       .  A
O84         Cu86   2.028       .  S
O84          C87   1.279       .  A
Cu85        Cu86   2.368       .  S
C87        C1082   1.476       .  S
C88        C1098   1.469       .  S
C89        C1853   1.494       .  S
C90        C1133   1.504       .  S
C91        C1050   1.604       .  S
C91        C1069   1.570       .  S
C91        C1101   1.569       .  S
C91        C1357   1.607       .  S
C92        C1066   1.577       .  S
C92        C1869   1.583       .  S
C92        C2058   1.564       .  S
C92        C2189   1.556       .  S
O93        Cu101   2.033       .  S
O93         C103   1.281       .  A
O94        Cu101   2.039       .  S
O94         C104   1.284       .  A
O95        Cu101   1.990       .  S
O95         C105   1.275       .  A
O96        Cu101   1.996       .  S
O96         C106   1.274       .  A
O97        Cu102   2.053       .  S
O97         C106   1.284       .  A
O98        Cu102   2.052       .  S
O98         C105   1.283       .  A
O99        Cu102   2.034       .  S
O99         C104   1.278       .  A
O100       Cu102   2.013       .  S
O100        C103   1.278       .  A
Cu101      Cu102   2.359       .  S
C103       C2045   1.495       .  S
C104       C1037   1.511       .  S
C105       C2365   1.502       .  S
C106       C1053   1.505       .  S
C107       C1002   1.569       .  S
C107       C1018   1.554       .  S
C107       C1034   1.609       .  S
C107       C1309   1.595       .  S
C108       C1021   1.542       .  S
C108       C1501   1.579       .  S
C108       C1629   1.582       .  S
C108       C2381   1.553       .  S
O109       Cu117   2.007       .  S
O109        C119   1.275       .  A
O110       Cu117   1.992       .  S
O110        C120   1.274       .  A
O111       Cu117   2.052       .  S
O111        C121   1.284       .  A
O112       Cu117   2.045       .  S
O112        C122   1.282       .  A
O113       Cu118   1.985       .  S
O113        C122   1.274       .  A
O114       Cu118   1.999       .  S
O114        C121   1.276       .  A
O115       Cu118   2.024       .  S
O115        C120   1.281       .  A
O116       Cu118   2.043       .  S
O116        C119   1.284       .  A
Cu117      Cu118   2.363       .  S
C119       C2109   1.500       .  S
C120       C1005   1.489       .  S
C121       C1597   1.505       .  S
C122        C986   1.480       .  S
C123        C922   1.584       .  S
C123        C941   1.609       .  S
C123        C957   1.611       .  S
C123        C973   1.574       .  S
C124        C874   1.581       .  S
C124        C890   1.595       .  S
C124        C909   1.571       .  S
C124        C989   1.597       .  S
O125       Cu133   2.027       .  S
O125        C135   1.279       .  A
O126       Cu133   2.021       .  S
O126        C136   1.279       .  A
O127       Cu133   2.004       .  S
O127        C137   1.279       .  A
O128       Cu133   2.013       .  S
O128        C138   1.280       .  A
O129       Cu134   2.051       .  S
O129        C138   1.281       .  A
O130       Cu134   2.049       .  S
O130        C137   1.281       .  A
O131       Cu134   2.020       .  S
O131        C136   1.278       .  A
O132       Cu134   2.028       .  S
O132        C135   1.280       .  A
Cu133      Cu134   2.361       .  S
C135        C893   1.501       .  S
C136       C1658   1.492       .  S
C137        C858   1.510       .  S
C138       C1981   1.502       .  S
C139        C829   1.605       .  S
C139        C842   1.592       .  S
C139        C861   1.615       .  S
C139       C1341   1.605       .  S
C140        C845   1.570       .  S
C140       C1437   1.574       .  S
C140       C1693   1.574       .  S
C140       C2314   1.547       .  S
O141       Cu149   2.050       .  S
O141        C151   1.281       .  A
O142       Cu149   2.036       .  S
O142        C152   1.281       .  A
O143       Cu149   2.015       .  S
O143        C153   1.280       .  A
O144       Cu149   2.013       .  S
O144        C154   1.277       .  A
O145       Cu150   2.024       .  S
O145        C154   1.279       .  A
O146       Cu150   2.028       .  S
O146        C153   1.279       .  A
O147       Cu150   2.003       .  S
O147        C152   1.277       .  A
O148       Cu150   2.003       .  S
O148        C151   1.279       .  A
Cu149      Cu150   2.366       .  S
C151        C826   1.497       .  S
C152       C1789   1.490       .  S
C153        C810   1.503       .  S
C154       C1405   1.477       .  S
C155        C746   1.592       .  S
C155        C762   1.581       .  S
C155        C778   1.587       .  S
C155        C794   1.578       .  S
C156        C717   1.584       .  S
C156        C733   1.575       .  S
C156        C813   1.605       .  S
C156       C1389   1.623       .  S
C157        C650   1.574       .  S
C157        C669   1.570       .  S
C157        C682   1.624       .  S
C157        C698   1.598       .  S
O158       Cu166   1.975       .  S
O158        C168   1.272       .  A
O159       Cu166   1.993       .  S
O159        C169   1.276       .  A
O160       Cu166   2.032       .  S
O160        C170   1.280       .  A
O161       Cu166   2.034       .  S
O161        C171   1.283       .  A
O162       Cu167   2.010       .  S
O162        C171   1.276       .  A
O163       Cu167   2.003       .  S
O163        C170   1.277       .  A
O164       Cu167   2.040       .  S
O164        C169   1.281       .  A
O165       Cu167   2.020       .  S
O165        C168   1.280       .  A
Cu166      Cu167   2.371       .  S
C168        C634   1.473       .  S
C169        C714   1.478       .  S
C170        C749   1.479       .  S
C171        C685   1.495       .  S
C172        C730   1.565       .  S
C172        C797   1.575       .  S
C172       C1818   1.560       .  S
C172       C2269   1.563       .  S
O173       Cu181   2.023       .  S
O173        C183   1.278       .  A
O174       Cu181   2.014   1_655  S
O174        C184   1.278       .  A
O175       Cu181   1.993   1_655  S
O175        C185   1.277       .  A
O176       Cu181   1.985       .  S
O176        C186   1.277       .  A
O177       Cu182   2.017       .  S
O177        C186   1.277       .  A
O178       Cu182   2.030   1_655  S
O178        C185   1.279       .  A
O179       Cu182   2.021   1_655  S
O179        C184   1.279       .  A
O180       Cu182   2.025       .  S
O180        C183   1.281       .  A
Cu181      Cu182   2.366       .  S
C183        C781   1.501       .  S
C184        C618   1.493       .  S
C185       C1773   1.480       .  S
C186       C1805   1.483       .  S
O187       Cu195   2.022   1_556  S
O187        C197   1.278       .  A
O188       Cu195   2.012       .  S
O188        C198   1.277       .  A
O189       Cu195   2.011       .  S
O189        C199   1.278       .  A
O190       Cu195   2.024   1_556  S
O190        C200   1.277       .  A
O191       Cu196   2.018   1_556  S
O191        C200   1.279       .  A
O192       Cu196   2.020       .  S
O192        C199   1.278       .  A
O193       Cu196   2.035       .  S
O193        C198   1.281       .  A
O194       Cu196   2.046   1_556  S
O194        C197   1.284       .  A
Cu195      Cu196   2.363       .  S
C197       C1706   1.512       .  S
C198       C2250   1.498       .  S
C199        C765   1.492       .  S
C200       C2333   1.478       .  S
C201        C906   1.566       .  S
C201        C970   1.591       .  S
C201       C2013   1.541       .  S
C201       C2138   1.600       .  S
O202       Cu210   2.021       .  S
O202        C212   1.278       .  A
O203       Cu210   2.030   1_565  S
O203        C213   1.280       .  A
O204       Cu210   2.036   1_565  S
O204        C214   1.280       .  A
O205       Cu210   2.033       .  S
O205        C215   1.279       .  A
O206       Cu211   2.005       .  S
O206        C215   1.277       .  A
O207       Cu211   2.006   1_565  S
O207        C214   1.279       .  A
O208       Cu211   2.020   1_565  S
O208        C213   1.279       .  A
O209       Cu211   2.009       .  S
O209        C212   1.279       .  A
Cu210      Cu211   2.363       .  S
C212       C2125   1.498       .  S
C213       C1450   1.506       .  S
C214       C2349   1.497       .  S
C215        C954   1.481       .  S
O216       Cu224   2.033       .  S
O216        C226   1.280       .  A
O217       Cu224   2.013   1_655  S
O217        C227   1.277       .  A
O218       Cu224   1.997   1_655  S
O218        C228   1.278       .  A
O219       Cu224   1.996       .  S
O219        C229   1.277       .  A
O220       Cu225   2.026       .  S
O220        C229   1.278       .  A
O221       Cu225   2.029   1_655  S
O221        C228   1.279       .  A
O222       Cu225   2.003   1_655  S
O222        C227   1.277       .  A
O223       Cu225   2.018       .  S
O223        C226   1.279       .  A
Cu224      Cu225   2.371       .  S
C226       C1997   1.491       .  S
C227       C1514   1.470       .  S
C228       C2397   1.494       .  S
C229        C938   1.469       .  S
O230       Cu238   2.019       .  S
O230        C240   1.280       .  A
O231       Cu238   2.014       .  S
O231        C241   1.277       .  A
O232       Cu238   2.005       .  S
O232        C242   1.278       .  A
O233       Cu238   1.987       .  S
O233        C243   1.276       .  A
O234       Cu239   2.026       .  S
O234        C243   1.279       .  A
O235       Cu239   2.033       .  S
O235        C242   1.280       .  A
O236       Cu239   2.018       .  S
O236        C241   1.281       .  A
O237       Cu239   2.032       .  S
O237        C240   1.279       .  A
Cu238      Cu239   2.365       .  S
C240        C602   1.494       .  S
C241        C877   1.493       .  S
C242        C925   1.503       .  S
C243        C666   1.477       .  S
C244        C586   1.574       .  S
C244       C1213   1.583       .  S
C244       C1277   1.593       .  S
C244       C1949   1.590       .  S
O245       Cu253   2.016       .  S
O245        C255   1.280       .  A
O246       Cu253   1.993   1_565  S
O246        C256   1.277       .  A
O247       Cu253   2.011   1_565  S
O247        C257   1.277       .  A
O248       Cu253   1.999       .  S
O248        C258   1.277       .  A
O249       Cu254   2.029       .  S
O249        C258   1.279       .  A
O250       Cu254   2.045   1_565  S
O250        C257   1.282       .  A
O251       Cu254   2.010   1_565  S
O251        C256   1.277       .  A
O252       Cu254   2.020       .  S
O252        C255   1.278       .  A
Cu253      Cu254   2.370       .  S
C255       C1242   1.494       .  S
C256        C557   1.478       .  S
C257       C1581   1.493       .  S
C258        C573   1.472       .  S
O259       Cu267   2.027       .  S
O259        C269   1.280       .  A
O260       Cu267   2.030   1_556  S
O260        C270   1.280       .  A
O261       Cu267   2.046   1_556  S
O261        C271   1.280       .  A
O262       Cu267   2.018       .  S
O262        C272   1.279       .  A
O263       Cu268   1.980       .  S
O263        C272   1.273       .  A
O264       Cu268   2.006   1_556  S
O264        C271   1.280       .  A
O265       Cu268   1.998   1_556  S
O265        C270   1.276       .  A
O266       Cu268   2.003       .  S
O266        C269   1.277       .  A
Cu267      Cu268   2.371       .  S
C269       C1933   1.491       .  S
C270       C1645   1.473       .  S
C271       C2410   1.494       .  S
C272       C1258   1.459       .  S
O273       Cu281   2.036       .  S
O273        C283   1.281       .  A
O274       Cu281   2.032       .  S
O274        C284   1.281       .  A
O275       Cu281   2.000       .  S
O275        C285   1.275       .  A
O276       Cu281   2.005       .  S
O276        C286   1.275       .  A
O277       Cu282   2.052       .  S
O277        C286   1.284       .  A
O278       Cu282   2.032       .  S
O278        C285   1.282       .  A
O279       Cu282   1.992       .  S
O279        C284   1.275       .  A
O280       Cu282   1.999       .  S
O280        C283   1.274       .  A
Cu281      Cu282   2.368       .  S
C283       C1181   1.476       .  S
C284        C538   1.477       .  S
C285        C653   1.491       .  S
C286       C1226   1.501       .  S
C287        C490   1.601       .  S
C287        C509   1.568       .  S
C287        C525   1.593       .  S
C287        C637   1.552       .  S
C288        C445   1.612       .  S
C288        C458   1.600       .  S
C288        C477   1.603       .  S
C288        C541   1.562       .  S
C289        C397   1.569       .  S
C289        C413   1.586       .  S
C289        C426   1.602       .  S
C289        C605   1.612       .  S
C290        C429   1.549       .  S
C290        C474   1.574       .  S
C290        C522   1.553       .  S
C290        C701   1.588       .  S
O291       Cu299   2.008   1_655  S
O291        C301   1.276       .  A
O292       Cu299   2.002       .  S
O292        C302   1.276       .  A
O293       Cu299   2.050       .  S
O293        C303   1.284       .  A
O294       Cu299   2.052   1_655  S
O294        C304   1.285       .  A
O295       Cu300   1.984   1_655  S
O295        C304   1.272       .  A
O296       Cu300   1.987       .  S
O296        C303   1.273       .  A
O297       Cu300   2.033       .  S
O297        C302   1.281       .  A
O298       Cu300   2.037   1_655  S
O298        C301   1.282       .  A
Cu299      Cu300   2.362       .  S
C301       C1965   1.491       .  S
C302        C410   1.492       .  S
C303        C493   1.498       .  S
C304        C381   1.499       .  S
O305       Cu313   2.039       .  S
O305        C315   1.282       .  A
O306       Cu313   2.033   1_565  S
O306        C316   1.279       .  A
O307       Cu313   2.021   1_565  S
O307        C317   1.280       .  A
O308       Cu313   2.029       .  S
O308        C318   1.279       .  A
O309       Cu314   1.994       .  S
O309        C318   1.277       .  A
O310       Cu314   1.987   1_565  S
O310        C317   1.274       .  A
O311       Cu314   2.006   1_565  S
O311        C316   1.279       .  A
O312       Cu314   2.011       .  S
O312        C315   1.277       .  A
Cu313      Cu314   2.367       .  S
C315        C461   1.501       .  S
C316       C1837   1.491       .  S
C317       C2282   1.479       .  S
C318        C394   1.481       .  S
O319       Cu327   1.998   1_556  S
O319        C329   1.275       .  A
O320       Cu327   1.982       .  S
O320        C330   1.274       .  A
O321       Cu327   2.006       .  S
O321        C331   1.279       .  A
O322       Cu327   2.005   1_556  S
O322        C332   1.277       .  A
O323       Cu328   2.036   1_556  S
O323        C332   1.281       .  A
O324       Cu328   2.043       .  S
O324        C331   1.281       .  A
O325       Cu328   2.027       .  S
O325        C330   1.279       .  A
O326       Cu328   2.036   1_556  S
O326        C329   1.280       .  A
Cu327      Cu328   2.366       .  S
C329       C2157   1.476       .  S
C330        C506   1.481       .  S
C331        C442   1.497       .  S
C332       C2029   1.503       .  S
O333       Cu341   2.030   1_655  S
O333        C343   1.279       .  A
O334       Cu341   2.032       .  S
O334        C344   1.280       .  A
O335       Cu341   2.029       .  S
O335        C345   1.279       .  A
O336       Cu341   2.028   1_655  S
O336        C346   1.281       .  A
O337       Cu342   2.012   1_655  S
O337        C346   1.275       .  A
O338       Cu342   2.015       .  S
O338        C345   1.279       .  A
O339       Cu342   2.036       .  S
O339        C344   1.281       .  A
O340       Cu342   2.040   1_655  S
O340        C343   1.283       .  A
Cu341      Cu342   2.367       .  S
C343       C2090   1.503       .  S
C344       C1418   1.502       .  S
C345       C1674   1.487       .  S
C346       C1885   1.478       .  S
O347       Cu355   2.030   1_565  S
O347        C357   1.279       .  A
O348       Cu355   2.036       .  S
O348        C358   1.282       .  A
O349       Cu355   2.020       .  S
O349        C359   1.278       .  A
O350       Cu355   2.049   1_565  S
O350        C360   1.282       .  A
O351       Cu356   2.037   1_565  S
O351        C360   1.281       .  A
O352       Cu356   2.008       .  S
O352        C359   1.279       .  A
O353       Cu356   2.010       .  S
O353        C358   1.276       .  A
O354       Cu356   1.999   1_565  S
O354        C357   1.276       .  A
Cu355      Cu356   2.363       .  S
C357       C2205   1.472       .  S
C358       C1485   1.501       .  S
C359       C1610   1.488       .  S
C360       C1901   1.521       .  S
O361       Cu369   2.018       .  S
O361        C371   1.279       .  A
O362       Cu369   2.025   1_556  S
O362        C372   1.279       .  A
O363       Cu369   2.030   1_556  S
O363        C373   1.280       .  A
O364       Cu369   2.018       .  S
O364        C374   1.280       .  A
O365       Cu370   2.031       .  S
O365        C374   1.280       .  A
O366       Cu370   2.031   1_556  S
O366        C373   1.281       .  A
O367       Cu370   2.018   1_556  S
O367        C372   1.280       .  A
O368       Cu370   2.023       .  S
O368        C371   1.278       .  A
Cu369      Cu370   2.366       .  S
C371       C1549   1.481       .  S
C372       C2074   1.496       .  S
C373       C2221   1.501       .  S
C374       C1741   1.497       .  S
C375        C378   1.584       .  S
C375        C570   1.583       .  S
C375        C589   1.571       .  S
C375       C1293   1.592       .  S
C376        C554   1.563       .  S
C376        C621   1.579       .  S
C376       C1085   1.595       .  S
C376       C1117   1.585       .  S
C377        C378   1.409       .  A
C377        C382   1.409       .  A
C377        H384   1.073       .  S
C378        C379   1.428       .  A
C379        C386   1.509       .  S
C379        C380   1.407       .  A
C380        C381   1.402       .  A
C380        H385   1.084       .  S
C381        C382   1.424       .  A
C382        C383   1.508       .  S
C383        H387   1.111       .  S
C383        H388   1.110       .  S
C383        H389   1.110       .  S
C386        H390   1.107       .  S
C386        H391   1.110       .  S
C386        H392   1.111       .  S
C393        C394   1.393       .  A
C393        C398   1.395       .  A
C393        H400   1.086       .  S
C394        C395   1.413       .  A
C395        C402   1.502       .  S
C395        C396   1.413       .  A
C396        C397   1.408       .  A
C396        H401   1.081       .  S
C397        C398   1.438       .  A
C398        C399   1.509       .  S
C399        H403   1.111       .  S
C399        H404   1.105       .  S
C399        H405   1.090       .  S
C402        H406   1.109       .  S
C402        H407   1.108       .  S
C402        H408   1.111       .  S
C409        C410   1.402       .  A
C409        C414   1.405       .  A
C409        H416   1.085       .  S
C410        C411   1.413       .  A
C411        C418   1.507       .  S
C411        C412   1.408       .  A
C412        C413   1.418       .  A
C412        H417   1.081       .  S
C413        C414   1.443       .  A
C414        C415   1.516       .  S
C415        H419   1.111       .  S
C415        H420   1.103       .  S
C415        H421   1.110       .  S
C418        H422   1.109       .  S
C418        H423   1.110       .  S
C418        H424   1.111       .  S
C425        C426   1.427       .  A
C425        C430   1.395       .  A
C425        H432   1.069       .  S
C426        C427   1.433       .  A
C427        C434   1.504       .  S
C427        C428   1.400       .  A
C428        C429   1.411       .  A
C428        H433   1.085       .  S
C429        C430   1.424       .  A
C430        C431   1.523       .  S
C431        H435   1.112       .  S
C431        H436   1.110       .  S
C431        H437   1.093       .  S
C434        H438   1.097       .  S
C434        H439   1.105       .  S
C434        H440   1.111       .  S
C441        C442   1.399       .  A
C441        C446   1.405       .  A
C441        H448   1.084       .  S
C442        C443   1.414       .  A
C443        C450   1.506       .  S
C443        C444   1.416       .  A
C444        C445   1.423       .  A
C444        H449   1.079       .  S
C445        C446   1.434       .  A
C446        C447   1.519       .  S
C447        H451   1.112       .  S
C447        H452   1.110       .  S
C447        H453   1.092       .  S
C450        H454   1.110       .  S
C450        H455   1.110       .  S
C450        H456   1.111       .  S
C457        C458   1.426       .  A
C457        C462   1.405       .  A
C457        H464   1.083       .  S
C458        C459   1.435       .  A
C459        C466   1.508       .  S
C459        C460   1.415       .  A
C460        C461   1.404       .  A
C460        H465   1.084       .  S
C461        C462   1.415       .  A
C462        C463   1.509       .  S
C463        H467   1.111       .  S
C463        H468   1.111       .  S
C463        H469   1.110       .  S
C466        H470   1.105       .  S
C466        H471   1.109       .  S
C466        H472   1.111       .  S
C473        C474   1.413       .  A
C473        C478   1.404       .  A
C473        H480   1.085       .  S
C474        C475   1.424       .  A
C475        C482   1.515       .  S
C475        C476   1.389       .  A
C476        C477   1.421       .  A
C476        H481   1.074       .  S
C477        C478   1.435       .  A
C478        C479   1.505       .  S
C479        H483   1.108       .  S
C479        H484   1.092       .  S
C479        H485   1.113       .  S
C482        H486   1.111       .  S
C482        H487   1.088       .  S
C482        H488   1.108       .  S
C489        C490   1.411       .  A
C489        C494   1.402       .  A
C489        H496   1.073       .  S
C490        C491   1.437       .  A
C491        C498   1.510       .  S
C491        C492   1.412       .  A
C492        C493   1.403       .  A
C492        H497   1.084       .  S
C493        C494   1.419       .  A
C494        C495   1.510       .  S
C495        H499   1.111       .  S
C495        H500   1.110       .  S
C495        H501   1.111       .  S
C498        H502   1.104       .  S
C498        H503   1.110       .  S
C498        H504   1.111       .  S
C505        C506   1.405       .  A
C505        C510   1.412       .  A
C505        H512   1.084       .  S
C506        C507   1.410       .  A
C507        C514   1.513       .  S
C507        C508   1.392       .  A
C508        C509   1.415       .  A
C508        H513   1.071       .  S
C509        C510   1.426       .  A
C510        C511   1.506       .  S
C511        H515   1.111       .  S
C511        H516   1.104       .  S
C511        H517   1.110       .  S
C514        H518   1.109       .  S
C514        H519   1.111       .  S
C514        H520   1.111       .  S
C521        C522   1.409       .  A
C521        C526   1.395       .  A
C521        H528   1.079       .  S
C522        C523   1.431       .  A
C523        C530   1.511       .  S
C523        C524   1.392       .  A
C524        C525   1.403       .  A
C524        H529   1.072       .  S
C525        C526   1.441       .  A
C526        C527   1.518       .  S
C527        H531   1.112       .  S
C527        H532   1.110       .  S
C527        H533   1.093       .  S
C530        H534   1.111       .  S
C530        H535   1.100       .  S
C530        H536   1.104       .  S
C537        C538   1.395       .  A
C537        C542   1.398       .  A
C537        H544   1.085       .  S
C538        C539   1.410       .  A
C539        C546   1.505       .  S
C539        C540   1.412       .  A
C540        C541   1.411       .  A
C540        H545   1.082       .  S
C541        C542   1.435       .  A
C542        C543   1.506       .  S
C543        H547   1.111       .  S
C543        H548   1.101       .  S
C543        H549   1.109       .  S
C546        H550   1.110       .  S
C546        H551   1.110       .  S
C546        H552   1.111       .  S
C553        C554   1.416       .  A
C553        C558   1.408       .  A
C553        H560   1.081       .  S
C554        C555   1.442       .  A
C555        C562   1.511       .  S
C555        C556   1.396       .  A
C556        C557   1.391       .  A
C556        H561   1.086       .  S
C557        C558   1.413       .  A
C558        C559   1.505       .  S
C559        H563   1.111       .  S
C559        H564   1.109       .  S
C559        H565   1.107       .  S
C562        H566   1.111       .  S
C562        H567   1.090       .  S
C562        H568   1.111       .  S
C569        C570   1.413       .  A
C569        C574   1.428       .  A
C569        H576   1.081       .  S
C570        C571   1.430       .  A
C571        C578   1.517       .  S
C571        C572   1.381       .  A
C572        C573   1.388       .  A
C572        H577   1.087       .  S
C573        C574   1.427       .  A
C574        C575   1.499       .  S
C575        H579   1.111       .  S
C575        H580   1.110       .  S
C575        H581   1.108       .  S
C578        H582   1.111       .  S
C578        H583   1.096       .  S
C578        H584   1.107       .  S
C585        C586   1.405       .  A
C585        C590   1.377       .  A
C585        H592   1.066       .  S
C586        C587   1.445       .  A
C587        C594   1.516       .  S
C587        C588   1.404       .  A
C588        C589   1.408       .  A
C588        H593   1.072       .  S
C589        C590   1.428       .  A
C590        C591   1.512       .  S
C591        H595   1.111       .  S
C591        H596   1.110       .  S
C591        H597   1.098       .  S
C594        H598   1.102       .  S
C594        H599   1.106       .  S
C594        H600   1.108       .  S
C601        C602   1.398       .  A
C601        C606   1.406       .  A
C601        H608   1.085       .  S
C602        C603   1.413       .  A
C603        C610   1.506       .  S
C603        C604   1.416       .  A
C604        C605   1.425       .  A
C604        H609   1.080       .  S
C605        C606   1.432       .  A
C606        C607   1.519       .  S
C607        H611   1.112       .  S
C607        H612   1.092       .  S
C607        H613   1.110       .  S
C610        H614   1.110       .  S
C610        H615   1.110       .  S
C610        H616   1.111       .  S
C617        C618   1.401       .  A
C617        C622   1.406       .  A
C617        H624   1.085       .  S
C618        C619   1.415       .  A
C619        C626   1.505       .  S
C619        C620   1.405       .  A
C620        C621   1.414       .  A
C620        H625   1.081       .  S
C621        C622   1.441       .  A
C622        C623   1.514       .  S
C623        H627   1.111       .  S
C623        H628   1.100       .  S
C623        H629   1.110       .  S
C626        H630   1.109       .  S
C626        H631   1.106       .  S
C626        H632   1.111       .  S
C633        C634   1.402       .  A
C633        C638   1.408       .  A
C633        H640   1.084       .  S
C634        C635   1.410       .  A
C635        C642   1.510       .  S
C635        C636   1.393       .  A
C636        C637   1.417       .  A
C636        H641   1.084       .  S
C637        C638   1.431       .  A
C638        C639   1.508       .  S
C639        H643   1.106       .  S
C639        H644   1.111       .  S
C639        H645   1.108       .  S
C642        H646   1.110       .  S
C642        H647   1.111       .  S
C642        H648   1.111       .  S
C649        C650   1.421       .  A
C649        C654   1.403       .  A
C649        H656   1.084       .  S
C650        C651   1.434       .  A
C651        C658   1.508       .  S
C651        C652   1.412       .  A
C652        C653   1.403       .  A
C652        H657   1.084       .  S
C653        C654   1.415       .  A
C654        C655   1.509       .  S
C655        H659   1.111       .  S
C655        H660   1.111       .  S
C655        H661   1.110       .  S
C658        H662   1.104       .  S
C658        H663   1.109       .  S
C658        H664   1.111       .  S
C665        C666   1.389       .  A
C665        C670   1.394       .  A
C665        H672   1.085       .  S
C666        C667   1.411       .  A
C667        C674   1.505       .  S
C667        C668   1.412       .  A
C668        C669   1.421       .  A
C668        H673   1.083       .  S
C669        C670   1.436       .  A
C670        C671   1.503       .  S
C671        H675   1.111       .  S
C671        H676   1.102       .  S
C671        H677   1.101       .  S
C674        H678   1.108       .  S
C674        H679   1.110       .  S
C674        H680   1.110       .  S
C681        C682   1.427       .  A
C681        C686   1.410       .  A
C681        H688   1.079       .  S
C682        C683   1.455       .  A
C683        C690   1.519       .  S
C683        C684   1.409       .  A
C684        C685   1.393       .  A
C684        H689   1.085       .  S
C685        C686   1.410       .  A
C686        C687   1.509       .  S
C687        H691   1.111       .  S
C687        H692   1.111       .  S
C687        H693   1.109       .  S
C690        H694   1.093       .  S
C690        H695   1.110       .  S
C690        H696   1.111       .  S
C697        C698   1.399       .  A
C697        C702   1.396       .  A
C697        H704   1.050       .  S
C698        C699   1.452       .  A
C699        C706   1.523       .  S
C699        C700   1.404       .  A
C700        C701   1.410       .  A
C700        H705   1.074       .  S
C701        C702   1.427       .  A
C702        C703   1.513       .  S
C703        H707   1.109       .  S
C703        H708   1.104       .  S
C703        H709   1.101       .  S
C706        H710   1.088       .  S
C706        H711   1.110       .  S
C706        H712   1.112       .  S
C713        C714   1.388       .  A
C713        C718   1.392       .  A
C713        H720   1.086       .  S
C714        C715   1.409       .  A
C715        C722   1.502       .  S
C715        C716   1.418       .  A
C716        C717   1.410       .  A
C716        H721   1.076       .  S
C717        C718   1.449       .  A
C718        C719   1.515       .  S
C719        H723   1.111       .  S
C719        H724   1.110       .  S
C719        H725   1.099       .  S
C722        H726   1.110       .  S
C722        H727   1.110       .  S
C722        H728   1.111       .  S
C729        C730   1.410       .  A
C729        C734   1.396       .  A
C729        H736   1.083       .  S
C730        C731   1.425       .  A
C731        C738   1.506       .  S
C731        C732   1.404       .  A
C732        C733   1.413       .  A
C732        H737   1.078       .  S
C733        C734   1.432       .  A
C734        C735   1.504       .  S
C735        H739   1.111       .  S
C735        H740   1.103       .  S
C735        H741   1.089       .  S
C738        H742   1.095       .  S
C738        H743   1.108       .  S
C738        H744   1.111       .  S
C745        C746   1.427       .  A
C745        C750   1.385       .  A
C745        H752   1.079       .  S
C746        C747   1.433       .  A
C747        C754   1.510       .  S
C747        C748   1.424       .  A
C748        C749   1.407       .  A
C748        H753   1.083       .  S
C749        C750   1.395       .  A
C750        C751   1.508       .  S
C751        H755   1.107       .  S
C751        H756   1.110       .  S
C751        H757   1.102       .  S
C754        H758   1.109       .  S
C754        H759   1.101       .  S
C754        H760   1.111       .  S
C761        C762   1.418       .  A
C761        C766   1.394       .  A
C761        H768   1.071       .  S
C762        C763   1.433       .  A
C763        C770   1.507       .  S
C763        C764   1.416       .  A
C764        C765   1.407       .  A
C764        H769   1.084       .  S
C765        C766   1.409       .  A
C766        C767   1.508       .  S
C767        H771   1.111       .  S
C767        H772   1.103       .  S
C767        H773   1.110       .  S
C770        H774   1.109       .  S
C770        H775   1.099       .  S
C770        H776   1.111       .  S
C777        C778   1.420       .  A
C777        C782   1.413       .  A
C777        H784   1.075       .  S
C778        C779   1.445       .  A
C779        C786   1.510       .  S
C779        C780   1.405       .  A
C780        C781   1.395       .  A
C780        H785   1.085       .  S
C781        C782   1.414       .  A
C782        C783   1.508       .  S
C783        H787   1.111       .  S
C783        H788   1.110       .  S
C783        H789   1.109       .  S
C786        H790   1.111       .  S
C786        H791   1.089       .  S
C786        H792   1.111       .  S
C793        C794   1.417       .  A
C793        C798   1.406       .  A
C793        H800   1.077       .  S
C794        C795   1.432       .  A
C795        C802   1.515       .  S
C795        C796   1.389       .  A
C796        C797   1.405       .  A
C796        H801   1.072       .  S
C797        C798   1.433       .  A
C798        C799   1.515       .  S
C799        H803   1.111       .  S
C799        H804   1.106       .  S
C799        H805   1.106       .  S
C802        H806   1.112       .  S
C802        H807   1.089       .  S
C802        H808   1.111       .  S
C809        C810   1.401       .  A
C809        C814   1.402       .  A
C809        H816   1.084       .  S
C810        C811   1.421       .  A
C811        C818   1.506       .  S
C811        C812   1.416       .  A
C812        C813   1.416       .  A
C812        H817   1.077       .  S
C813        C814   1.431       .  A
C814        C815   1.514       .  S
C815        H819   1.112       .  S
C815        H820   1.105       .  S
C815        H821   1.104       .  S
C818        H822   1.110       .  S
C818        H823   1.110       .  S
C818        H824   1.111       .  S
C825        C826   1.402       .  A
C825        C830   1.391       .  A
C825        H832   1.084       .  S
C826        C827   1.428       .  A
C827        C834   1.502       .  S
C827        C828   1.433       .  A
C828        C829   1.411       .  A
C828        H833   1.079       .  S
C829        C830   1.415       .  A
C830        C831   1.518       .  S
C831        H835   1.112       .  S
C831        H836   1.104       .  S
C831        H837   1.110       .  S
C834        H838   1.110       .  S
C834        H839   1.109       .  S
C834        H840   1.111       .  S
C841        C842   1.425       .  A
C841        C846   1.387       .  A
C841        H848   1.078       .  S
C842        C843   1.432       .  A
C843        C850   1.494       .  S
C843        C844   1.411       .  A
C844        C845   1.418       .  A
C844        H849   1.083       .  S
C845        C846   1.423       .  A
C846        C847   1.519       .  S
C847        H851   1.104       .  S
C847        H852   1.106       .  S
C847        H853   1.104       .  S
C850        H854   1.105       .  S
C850        H855   1.101       .  S
C850        H856   1.109       .  S
C857        C858   1.393       .  A
C857        C862   1.409       .  A
C857        H864   1.086       .  S
C858        C859   1.408       .  A
C859        C866   1.508       .  S
C859        C860   1.415       .  A
C860        C861   1.434       .  A
C860        H865   1.073       .  S
C861        C862   1.459       .  A
C862        C863   1.513       .  S
C863        H867   1.112       .  S
C863        H868   1.111       .  S
C863        H869   1.076       .  S
C866        H870   1.110       .  S
C866        H871   1.110       .  S
C866        H872   1.111       .  S
C873        C874   1.419       .  A
C873        C878   1.413       .  A
C873        H880   1.070       .  S
C874        C875   1.449       .  A
C875        C882   1.512       .  S
C875        C876   1.400       .  A
C876        C877   1.391       .  A
C876        H881   1.086       .  S
C877        C878   1.413       .  A
C878        C879   1.508       .  S
C879        H883   1.111       .  S
C879        H884   1.110       .  S
C879        H885   1.109       .  S
C882        H886   1.111       .  S
C882        H887   1.087       .  S
C882        H888   1.110       .  S
C889        C890   1.424       .  A
C889        C894   1.404       .  A
C889        H896   1.070       .  S
C890        C891   1.433       .  A
C891        C898   1.508       .  S
C891        C892   1.417       .  A
C892        C893   1.409       .  A
C892        H897   1.084       .  S
C893        C894   1.412       .  A
C894        C895   1.510       .  S
C895        H899   1.111       .  S
C895        H900   1.110       .  S
C895        H901   1.110       .  S
C898        H902   1.109       .  S
C898        H903   1.100       .  S
C898        H904   1.110       .  S
C905        C906   1.410       .  A
C905        C910   1.392       .  A
C905        H912   1.085       .  S
C906        C907   1.438       .  A
C907        C914   1.513       .  S
C907        C908   1.392       .  A
C908        C909   1.404       .  A
C908        H913   1.072       .  S
C909        C910   1.434       .  A
C910        C911   1.515       .  S
C911        H915   1.111       .  S
C911        H916   1.104       .  S
C911        H917   1.105       .  S
C914        H918   1.100       .  S
C914        H919   1.099       .  S
C914        H920   1.111       .  S
C921        C922   1.423       .  A
C921        C926   1.409       .  A
C921        H928   1.077       .  S
C922        C923   1.439       .  A
C923        C930   1.509       .  S
C923        C924   1.409       .  A
C924        C925   1.402       .  A
C924        H929   1.084       .  S
C925        C926   1.413       .  A
C926        C927   1.508       .  S
C927        H931   1.111       .  S
C927        H932   1.110       .  S
C927        H933   1.110       .  S
C930        H934   1.104       .  S
C930        H935   1.102       .  S
C930        H936   1.111       .  S
C937        C938   1.378       .  A
C937        C942   1.381       .  A
C937        H944   1.088       .  S
C938        C939   1.414       .  A
C939        C946   1.502       .  S
C939        C940   1.426       .  A
C940        C941   1.417       .  A
C940        H945   1.073       .  S
C941        C942   1.439       .  A
C942        C943   1.503       .  S
C943        H947   1.112       .  S
C943        H948   1.099       .  S
C943        H949   1.103       .  S
C946        H950   1.111       .  S
C946        H951   1.110       .  S
C946        H952   1.111       .  S
C953        C954   1.399       .  A
C953        C958   1.423       .  A
C953        H960   1.084       .  S
C954        C955   1.398       .  A
C955        C962   1.512       .  S
C955        C956   1.390       .  A
C956        C957   1.435       .  A
C956        H961   1.079       .  S
C957        C958   1.441       .  A
C958        C959   1.498       .  S
C959        H963   1.111       .  S
C959        H964   1.108       .  S
C959        H965   1.107       .  S
C962        H966   1.109       .  S
C962        H967   1.109       .  S
C962        H968   1.111       .  S
C969        C970   1.398       .  A
C969        C974   1.388       .  A
C969        H976   1.061       .  S
C970        C971   1.448       .  A
C971        C978   1.520       .  S
C971        C972   1.405       .  A
C972        C973   1.411       .  A
C972        H977   1.079       .  S
C973        C974   1.430       .  A
C974        C975   1.520       .  S
C975        H979   1.110       .  S
C975        H980   1.102       .  S
C975        H981   1.111       .  S
C978        H982   1.110       .  S
C978        H983   1.100       .  S
C978        H984   1.112       .  S
C985        C986   1.406       .  A
C985        C990   1.423       .  A
C985        H992   1.084       .  S
C986        C987   1.395       .  A
C987        C994   1.509       .  S
C987        C988   1.387       .  A
C988        C989   1.431       .  A
C988        H993   1.080       .  S
C989        C990   1.433       .  A
C990        C991   1.503       .  S
C991        H995   1.110       .  S
C991        H996   1.099       .  S
C991        H997   1.110       .  S
C994        H998   1.110       .  S
C994        H999   1.108       .  S
C994       H1000   1.110       .  S
C1001      C1002   1.412       .  A
C1001      C1006   1.404       .  A
C1001      H1008   1.076       .  S
C1002      C1003   1.424       .  A
C1003      C1010   1.506       .  S
C1003      C1004   1.408       .  A
C1004      C1005   1.406       .  A
C1004      H1009   1.084       .  S
C1005      C1006   1.418       .  A
C1006      C1007   1.508       .  S
C1007      H1011   1.111       .  S
C1007      H1012   1.110       .  S
C1007      H1013   1.110       .  S
C1010      H1014   1.107       .  S
C1010      H1015   1.109       .  S
C1010      H1016   1.111       .  S
C1017      C1018   1.417       .  A
C1017      C1022   1.379       .  A
C1017      H1024   1.084       .  S
C1018      C1019   1.432       .  A
C1019      C1026   1.512       .  S
C1019      C1020   1.393       .  A
C1020      C1021   1.410       .  A
C1020      H1025   1.079       .  S
C1021      C1022   1.423       .  A
C1022      C1023   1.505       .  S
C1023      H1027   1.112       .  S
C1023      H1028   1.110       .  S
C1023      H1029   1.081       .  S
C1026      H1030   1.104       .  S
C1026      H1031   1.092       .  S
C1026      H1032   1.112       .  S
C1033      C1034   1.423       .  A
C1033      C1038   1.421       .  A
C1033      H1040   1.072       .  S
C1034      C1035   1.450       .  A
C1035      C1042   1.505       .  S
C1035      C1036   1.405       .  A
C1036      C1037   1.393       .  A
C1036      H1041   1.085       .  S
C1037      C1038   1.418       .  A
C1038      C1039   1.507       .  S
C1039      H1043   1.111       .  S
C1039      H1044   1.109       .  S
C1039      H1045   1.110       .  S
C1042      H1046   1.079       .  S
C1042      H1047   1.111       .  S
C1042      H1048   1.110       .  S
C1049      C1050   1.423       .  A
C1049      C1054   1.402       .  A
C1049      H1056   1.076       .  S
C1050      C1051   1.449       .  A
C1051      C1058   1.509       .  S
C1051      C1052   1.421       .  A
C1052      C1053   1.400       .  A
C1052      H1057   1.084       .  S
C1053      C1054   1.414       .  A
C1054      C1055   1.512       .  S
C1055      H1059   1.111       .  S
C1055      H1060   1.111       .  S
C1055      H1061   1.110       .  S
C1058      H1062   1.103       .  S
C1058      H1063   1.107       .  S
C1058      H1064   1.111       .  S
C1065      C1066   1.413       .  A
C1065      C1070   1.402       .  A
C1065      H1072   1.077       .  S
C1066      C1067   1.426       .  A
C1067      C1074   1.501       .  S
C1067      C1068   1.403       .  A
C1068      C1069   1.414       .  A
C1068      H1073   1.081       .  S
C1069      C1070   1.429       .  A
C1070      C1071   1.509       .  S
C1071      H1075   1.111       .  S
C1071      H1076   1.098       .  S
C1071      H1077   1.106       .  S
C1074      H1078   1.090       .  S
C1074      H1079   1.111       .  S
C1074      H1080   1.109       .  S
C1081      C1082   1.403       .  A
C1081      C1086   1.416       .  A
C1081      H1088   1.084       .  S
C1082      C1083   1.402       .  A
C1083      C1090   1.516       .  S
C1083      C1084   1.390       .  A
C1084      C1085   1.415       .  A
C1084      H1089   1.049       .  S
C1085      C1086   1.434       .  A
C1086      C1087   1.505       .  S
C1087      H1091   1.111       .  S
C1087      H1092   1.107       .  S
C1087      H1093   1.110       .  S
C1090      H1094   1.109       .  S
C1090      H1095   1.110       .  S
C1090      H1096   1.111       .  S
C1097      C1098   1.381       .  A
C1097      C1102   1.386       .  A
C1097      H1104   1.086       .  S
C1098      C1099   1.411       .  A
C1099      C1106   1.502       .  S
C1099      C1100   1.421       .  A
C1100      C1101   1.419       .  A
C1100      H1105   1.083       .  S
C1101      C1102   1.436       .  A
C1102      C1103   1.498       .  S
C1103      H1107   1.104       .  S
C1103      H1108   1.096       .  S
C1103      H1109   1.110       .  S
C1106      H1110   1.110       .  S
C1106      H1111   1.110       .  S
C1106      H1112   1.111       .  S
C1113      C1114   1.409       .  A
C1113      C1118   1.393       .  A
C1113      H1120   1.084       .  S
C1114      C1115   1.439       .  A
C1115      C1122   1.517       .  S
C1115      C1116   1.388       .  A
C1116      C1117   1.409       .  A
C1116      H1121   1.073       .  S
C1117      C1118   1.426       .  A
C1118      C1119   1.519       .  S
C1119      H1123   1.107       .  S
C1119      H1124   1.097       .  S
C1119      H1125   1.108       .  S
C1122      H1126   1.111       .  S
C1122      H1127   1.081       .  S
C1122      H1128   1.112       .  S
C1129      C1130   1.425       .  A
C1129      C1134   1.414       .  A
C1129      H1136   1.070       .  S
C1130      C1131   1.454       .  A
C1131      C1138   1.517       .  S
C1131      C1132   1.407       .  A
C1132      C1133   1.393       .  A
C1132      H1137   1.084       .  S
C1133      C1134   1.413       .  A
C1134      C1135   1.509       .  S
C1135      H1139   1.111       .  S
C1135      H1140   1.111       .  S
C1135      H1141   1.109       .  S
C1138      H1142   1.111       .  S
C1138      H1143   1.092       .  S
C1138      H1144   1.102       .  S
C1145      C1146   1.416       .  A
C1145      C1150   1.390       .  A
C1145      H1152   1.081       .  S
C1146      C1147   1.430       .  A
C1147      C1154   1.509       .  S
C1147      C1148   1.406       .  A
C1148      C1149   1.421       .  A
C1148      H1153   1.076       .  S
C1149      C1150   1.428       .  A
C1150      C1151   1.512       .  S
C1151      H1155   1.111       .  S
C1151      H1156   1.105       .  S
C1151      H1157   1.096       .  S
C1154      H1158   1.097       .  S
C1154      H1159   1.101       .  S
C1154      H1160   1.111       .  S
C1161      C1162   1.377       .  A
C1161      C1166   1.391       .  A
C1161      H1168   1.086       .  S
C1162      C1163   1.409       .  A
C1163      C1170   1.502       .  S
C1163      C1164   1.415       .  A
C1164      C1165   1.417       .  A
C1164      H1169   1.083       .  S
C1165      C1166   1.459       .  A
C1166      C1167   1.519       .  S
C1167      H1171   1.111       .  S
C1167      H1172   1.081       .  S
C1167      H1173   1.098       .  S
C1170      H1174   1.110       .  S
C1170      H1175   1.109       .  S
C1170      H1176   1.111       .  S
C1177      C1178   1.420       .  A
C1177      C1182   1.389       .  A
C1177      H1184   1.071       .  S
C1178      C1179   1.440       .  A
C1179      C1186   1.506       .  S
C1179      C1180   1.422       .  A
C1180      C1181   1.401       .  A
C1180      H1185   1.083       .  S
C1181      C1182   1.389       .  A
C1182      C1183   1.500       .  S
C1183      H1187   1.110       .  S
C1183      H1188   1.109       .  S
C1183      H1189   1.105       .  S
C1186      H1190   1.104       .  S
C1186      H1191   1.106       .  S
C1186      H1192   1.111       .  S
C1193      C1194   1.386       .  A
C1193      C1198   1.391       .  A
C1193      H1200   1.086       .  S
C1194      C1195   1.407       .  A
C1195      C1202   1.502       .  S
C1195      C1196   1.414       .  A
C1196      C1197   1.422       .  A
C1196      H1201   1.081       .  S
C1197      C1198   1.441       .  A
C1198      C1199   1.499       .  S
C1199      H1203   1.111       .  S
C1199      H1204   1.106       .  S
C1199      H1205   1.088       .  S
C1202      H1206   1.107       .  S
C1202      H1207   1.110       .  S
C1202      H1208   1.111       .  S
C1209      C1210   1.414       .  A
C1209      C1214   1.397       .  A
C1209      H1216   1.076       .  S
C1210      C1211   1.435       .  A
C1211      C1218   1.518       .  S
C1211      C1212   1.400       .  A
C1212      C1213   1.411       .  A
C1212      H1217   1.077       .  S
C1213      C1214   1.435       .  A
C1214      C1215   1.519       .  S
C1215      H1219   1.111       .  S
C1215      H1220   1.105       .  S
C1215      H1221   1.107       .  S
C1218      H1222   1.105       .  S
C1218      H1223   1.092       .  S
C1218      H1224   1.111       .  S
C1225      C1226   1.405       .  A
C1225      C1230   1.413       .  A
C1225      H1232   1.084       .  S
C1226      C1227   1.420       .  A
C1227      C1234   1.508       .  S
C1227      C1228   1.409       .  A
C1228      C1229   1.420       .  A
C1228      H1233   1.079       .  S
C1229      C1230   1.431       .  A
C1230      C1231   1.507       .  S
C1231      H1235   1.111       .  S
C1231      H1236   1.110       .  S
C1231      H1237   1.106       .  S
C1234      H1238   1.106       .  S
C1234      H1239   1.110       .  S
C1234      H1240   1.111       .  S
C1241      C1242   1.397       .  A
C1241      C1246   1.411       .  A
C1241      H1248   1.084       .  S
C1242      C1243   1.408       .  A
C1243      C1250   1.508       .  S
C1243      C1244   1.405       .  A
C1244      C1245   1.424       .  A
C1244      H1249   1.078       .  S
C1245      C1246   1.446       .  A
C1246      C1247   1.508       .  S
C1247      H1251   1.111       .  S
C1247      H1252   1.106       .  S
C1247      H1253   1.106       .  S
C1250      H1254   1.111       .  S
C1250      H1255   1.110       .  S
C1250      H1256   1.111       .  S
C1257      C1258   1.383       .  A
C1257      C1262   1.382       .  A
C1257      H1264   1.088       .  S
C1258      C1259   1.412       .  A
C1259      C1266   1.502       .  S
C1259      C1260   1.417       .  A
C1260      C1261   1.417       .  A
C1260      H1265   1.084       .  S
C1261      C1262   1.434       .  A
C1262      C1263   1.506       .  S
C1263      H1267   1.107       .  S
C1263      H1268   1.109       .  S
C1263      H1269   1.101       .  S
C1266      H1270   1.110       .  S
C1266      H1271   1.110       .  S
C1266      H1272   1.111       .  S
C1273      C1274   1.413       .  A
C1273      C1278   1.395       .  A
C1273      H1280   1.083       .  S
C1274      C1275   1.423       .  A
C1275      C1282   1.498       .  S
C1275      C1276   1.405       .  A
C1276      C1277   1.421       .  A
C1276      H1281   1.075       .  S
C1277      C1278   1.431       .  A
C1278      C1279   1.505       .  S
C1279      H1283   1.114       .  S
C1279      H1284   1.099       .  S
C1279      H1285   1.100       .  S
C1282      H1286   1.105       .  S
C1282      H1287   1.085       .  S
C1282      H1288   1.109       .  S
C1289      C1290   1.403       .  A
C1289      C1294   1.416       .  A
C1289      H1296   1.084       .  S
C1290      C1291   1.407       .  A
C1291      C1298   1.510       .  S
C1291      C1292   1.397       .  A
C1292      C1293   1.427       .  A
C1292      H1297   1.084       .  S
C1293      C1294   1.436       .  A
C1294      C1295   1.501       .  S
C1295      H1299   1.111       .  S
C1295      H1300   1.107       .  S
C1295      H1301   1.105       .  S
C1298      H1302   1.109       .  S
C1298      H1303   1.111       .  S
C1298      H1304   1.111       .  S
C1305      C1306   1.374       .  A
C1305      C1310   1.381       .  A
C1305      H1312   1.089       .  S
C1306      C1307   1.410       .  A
C1307      C1314   1.502       .  S
C1307      C1308   1.421       .  A
C1308      C1309   1.418       .  A
C1308      H1313   1.083       .  S
C1309      C1310   1.459       .  A
C1310      C1311   1.519       .  S
C1311      H1315   1.113       .  S
C1311      H1316   1.092       .  S
C1311      H1317   1.108       .  S
C1314      H1318   1.110       .  S
C1314      H1319   1.110       .  S
C1314      H1320   1.111       .  S
C1321      C1322   1.399       .  A
C1321      C1326   1.409       .  A
C1321      H1328   1.085       .  S
C1322      C1323   1.407       .  A
C1323      C1330   1.511       .  S
C1323      C1324   1.402       .  A
C1324      C1325   1.423       .  A
C1324      H1329   1.067       .  S
C1325      C1326   1.449       .  A
C1326      C1327   1.516       .  S
C1327      H1331   1.111       .  S
C1327      H1332   1.085       .  S
C1327      H1333   1.111       .  S
C1330      H1334   1.110       .  S
C1330      H1335   1.110       .  S
C1330      H1336   1.111       .  S
C1337      C1338   1.396       .  A
C1337      C1342   1.398       .  A
C1337      H1344   1.085       .  S
C1338      C1339   1.414       .  A
C1339      C1346   1.503       .  S
C1339      C1340   1.423       .  A
C1340      C1341   1.421       .  A
C1340      H1345   1.082       .  S
C1341      C1342   1.459       .  A
C1342      C1343   1.531       .  S
C1343      H1347   1.104       .  S
C1343      H1348   1.100       .  S
C1343      H1349   1.109       .  S
C1346      H1350   1.110       .  S
C1346      H1351   1.110       .  S
C1346      H1352   1.111       .  S
C1353      C1354   1.390       .  A
C1353      C1358   1.403       .  A
C1353      H1360   1.086       .  S
C1354      C1355   1.417       .  A
C1355      C1362   1.505       .  S
C1355      C1356   1.421       .  A
C1356      C1357   1.420       .  A
C1356      H1361   1.079       .  S
C1357      C1358   1.448       .  A
C1358      C1359   1.511       .  S
C1359      H1363   1.112       .  S
C1359      H1364   1.092       .  S
C1359      H1365   1.108       .  S
C1362      H1366   1.110       .  S
C1362      H1367   1.109       .  S
C1362      H1368   1.111       .  S
C1369      C1370   1.410       .  A
C1369      C1374   1.410       .  A
C1369      H1376   1.084       .  S
C1370      C1371   1.410       .  A
C1371      C1378   1.509       .  S
C1371      C1372   1.397       .  A
C1372      C1373   1.419       .  A
C1372      H1377   1.073       .  S
C1373      C1374   1.421       .  A
C1374      C1375   1.507       .  S
C1375      H1379   1.111       .  S
C1375      H1380   1.109       .  S
C1375      H1381   1.106       .  S
C1378      H1382   1.110       .  S
C1378      H1383   1.110       .  S
C1378      H1384   1.111       .  S
C1385      C1386   1.399       .  A
C1385      C1390   1.424       .  A
C1385      H1392   1.084       .  S
C1386      C1387   1.398       .  A
C1387      C1394   1.515       .  S
C1387      C1388   1.393       .  A
C1388      C1389   1.433       .  A
C1388      H1393   1.068       .  S
C1389      C1390   1.455       .  A
C1390      C1391   1.510       .  S
C1391      H1395   1.111       .  S
C1391      H1396   1.101       .  S
C1391      H1397   1.106       .  S
C1394      H1398   1.111       .  S
C1394      H1399   1.109       .  S
C1394      H1400   1.111       .  S
C1401      C1402   1.424       .  A
C1401      C1406   1.392       .  A
C1401      H1408   1.076       .  S
C1402      C1403   1.437       .  A
C1403      C1410   1.506       .  S
C1403      C1404   1.421       .  A
C1404      C1405   1.401       .  A
C1404      H1409   1.084       .  S
C1405      C1406   1.397       .  A
C1406      C1407   1.507       .  S
C1407      H1411   1.109       .  S
C1407      H1412   1.110       .  S
C1407      H1413   1.109       .  S
C1410      H1414   1.103       .  S
C1410      H1415   1.106       .  S
C1410      H1416   1.111       .  S
C1417      C1418   1.404       .  A
C1417      C1422   1.415       .  A
C1417      H1424   1.085       .  S
C1418      C1419   1.414       .  A
C1419      C1426   1.508       .  S
C1419      C1420   1.409       .  A
C1420      C1421   1.421       .  A
C1420      H1425   1.083       .  S
C1421      C1422   1.439       .  A
C1422      C1423   1.509       .  S
C1423      H1427   1.111       .  S
C1423      H1428   1.097       .  S
C1423      H1429   1.111       .  S
C1426      H1430   1.110       .  S
C1426      H1431   1.111       .  S
C1426      H1432   1.111       .  S
C1433      C1434   1.417       .  A
C1433      C1438   1.404       .  A
C1433      H1440   1.077       .  S
C1434      C1435   1.421       .  A
C1435      C1442   1.502       .  S
C1435      C1436   1.392       .  A
C1436      C1437   1.408       .  A
C1436      H1441   1.078       .  S
C1437      C1438   1.432       .  A
C1438      C1439   1.517       .  S
C1439      H1443   1.110       .  S
C1439      H1444   1.106       .  S
C1439      H1445   1.102       .  S
C1442      H1446   1.107       .  S
C1442      H1447   1.090       .  S
C1442      H1448   1.109       .  S
C1449      C1450   1.405       .  A
C1449      C1454   1.416       .  A
C1449      H1456   1.083       .  S
C1450      C1451   1.412       .  A
C1451      C1458   1.509       .  S
C1451      C1452   1.404       .  A
C1452      C1453   1.420       .  A
C1452      H1457   1.072       .  S
C1453      C1454   1.443       .  A
C1454      C1455   1.514       .  S
C1455      H1459   1.110       .  S
C1455      H1460   1.103       .  S
C1455      H1461   1.105       .  S
C1458      H1462   1.110       .  S
C1458      H1463   1.110       .  S
C1458      H1464   1.111       .  S
C1465      C1466   1.415       .  A
C1465      C1470   1.413       .  A
C1465      H1472   1.078       .  S
C1466      C1467   1.442       .  A
C1467      C1474   1.523       .  S
C1467      C1468   1.409       .  A
C1468      C1469   1.400       .  A
C1468      H1473   1.084       .  S
C1469      C1470   1.418       .  A
C1470      C1471   1.508       .  S
C1471      H1475   1.111       .  S
C1471      H1476   1.110       .  S
C1471      H1477   1.109       .  S
C1474      H1478   1.109       .  S
C1474      H1479   1.100       .  S
C1474      H1480   1.111       .  S
C1481      C1482   1.428       .  A
C1481      C1486   1.404       .  A
C1481      H1488   1.075       .  S
C1482      C1483   1.441       .  A
C1483      C1490   1.516       .  S
C1483      C1484   1.414       .  A
C1484      C1485   1.407       .  A
C1484      H1489   1.084       .  S
C1485      C1486   1.409       .  A
C1486      C1487   1.511       .  S
C1487      H1491   1.111       .  S
C1487      H1492   1.110       .  S
C1487      H1493   1.109       .  S
C1490      H1494   1.110       .  S
C1490      H1495   1.103       .  S
C1490      H1496   1.110       .  S
C1497      C1498   1.414       .  A
C1497      C1502   1.400       .  A
C1497      H1504   1.054       .  S
C1498      C1499   1.435       .  A
C1499      C1506   1.516       .  S
C1499      C1500   1.402       .  A
C1500      C1501   1.422       .  A
C1500      H1505   1.081       .  S
C1501      C1502   1.430       .  A
C1502      C1503   1.513       .  S
C1503      H1507   1.110       .  S
C1503      H1508   1.084       .  S
C1503      H1509   1.110       .  S
C1506      H1510   1.103       .  S
C1506      H1511   1.106       .  S
C1506      H1512   1.105       .  S
C1513      C1514   1.403       .  A
C1513      C1518   1.415       .  A
C1513      H1520   1.084       .  S
C1514      C1515   1.402       .  A
C1515      C1522   1.512       .  S
C1515      C1516   1.391       .  A
C1516      C1517   1.421       .  A
C1516      H1521   1.080       .  S
C1517      C1518   1.433       .  A
C1518      C1519   1.514       .  S
C1519      H1523   1.111       .  S
C1519      H1524   1.103       .  S
C1519      H1525   1.107       .  S
C1522      H1526   1.110       .  S
C1522      H1527   1.109       .  S
C1522      H1528   1.111       .  S
C1529      C1530   1.429       .  A
C1529      C1534   1.415       .  A
C1529      H1536   1.075       .  S
C1530      C1531   1.447       .  A
C1531      C1538   1.504       .  S
C1531      C1532   1.405       .  A
C1532      C1533   1.395       .  A
C1532      H1537   1.085       .  S
C1533      C1534   1.413       .  A
C1534      C1535   1.508       .  S
C1535      H1539   1.111       .  S
C1535      H1540   1.110       .  S
C1535      H1541   1.110       .  S
C1538      H1542   1.112       .  S
C1538      H1543   1.072       .  S
C1538      H1544   1.110       .  S
C1545      C1546   1.431       .  A
C1545      C1550   1.395       .  A
C1545      H1552   1.078       .  S
C1546      C1547   1.438       .  A
C1547      C1554   1.502       .  S
C1547      C1548   1.419       .  A
C1548      C1549   1.401       .  A
C1548      H1553   1.084       .  S
C1549      C1550   1.398       .  A
C1550      C1551   1.511       .  S
C1551      H1555   1.105       .  S
C1551      H1556   1.110       .  S
C1551      H1557   1.109       .  S
C1554      H1558   1.093       .  S
C1554      H1559   1.111       .  S
C1554      H1560   1.110       .  S
C1561      C1562   1.407       .  A
C1561      C1566   1.391       .  A
C1561      H1568   1.075       .  S
C1562      C1563   1.430       .  A
C1563      C1570   1.512       .  S
C1563      C1564   1.397       .  A
C1564      C1565   1.418       .  A
C1564      H1569   1.078       .  S
C1565      C1566   1.426       .  A
C1566      C1567   1.508       .  S
C1567      H1571   1.109       .  S
C1567      H1572   1.108       .  S
C1567      H1573   1.081       .  S
C1570      H1574   1.099       .  S
C1570      H1575   1.108       .  S
C1570      H1576   1.111       .  S
C1577      C1578   1.422       .  A
C1577      C1582   1.404       .  A
C1577      H1584   1.073       .  S
C1578      C1579   1.432       .  A
C1579      C1586   1.507       .  S
C1579      C1580   1.420       .  A
C1580      C1581   1.405       .  A
C1580      H1585   1.084       .  S
C1581      C1582   1.410       .  A
C1582      C1583   1.511       .  S
C1583      H1587   1.111       .  S
C1583      H1588   1.111       .  S
C1583      H1589   1.109       .  S
C1586      H1590   1.101       .  S
C1586      H1591   1.107       .  S
C1586      H1592   1.111       .  S
C1593      C1594   1.422       .  A
C1593      C1598   1.411       .  A
C1593      H1600   1.078       .  S
C1594      C1595   1.433       .  A
C1595      C1602   1.510       .  S
C1595      C1596   1.411       .  A
C1596      C1597   1.408       .  A
C1596      H1601   1.083       .  S
C1597      C1598   1.414       .  A
C1598      C1599   1.507       .  S
C1599      H1603   1.111       .  S
C1599      H1604   1.110       .  S
C1599      H1605   1.110       .  S
C1602      H1606   1.104       .  S
C1602      H1607   1.107       .  S
C1602      H1608   1.111       .  S
C1609      C1610   1.395       .  A
C1609      C1614   1.400       .  A
C1609      H1616   1.085       .  S
C1610      C1611   1.412       .  A
C1611      C1618   1.508       .  S
C1611      C1612   1.410       .  A
C1612      C1613   1.419       .  A
C1612      H1617   1.073       .  S
C1613      C1614   1.445       .  A
C1614      C1615   1.518       .  S
C1615      H1619   1.111       .  S
C1615      H1620   1.101       .  S
C1615      H1621   1.111       .  S
C1618      H1622   1.109       .  S
C1618      H1623   1.110       .  S
C1618      H1624   1.111       .  S
C1625      C1626   1.412       .  A
C1625      C1630   1.394       .  A
C1625      H1632   1.066       .  S
C1626      C1627   1.443       .  A
C1627      C1634   1.517       .  S
C1627      C1628   1.395       .  A
C1628      C1629   1.408       .  A
C1628      H1633   1.076       .  S
C1629      C1630   1.418       .  A
C1630      C1631   1.508       .  S
C1631      H1635   1.106       .  S
C1631      H1636   1.111       .  S
C1631      H1637   1.099       .  S
C1634      H1638   1.105       .  S
C1634      H1639   1.106       .  S
C1634      H1640   1.111       .  S
C1641      C1642   1.428       .  A
C1641      C1646   1.375       .  A
C1641      H1648   1.070       .  S
C1642      C1643   1.436       .  A
C1643      C1650   1.507       .  S
C1643      C1644   1.425       .  A
C1644      C1645   1.408       .  A
C1644      H1649   1.084       .  S
C1645      C1646   1.389       .  A
C1646      C1647   1.507       .  S
C1647      H1651   1.111       .  S
C1647      H1652   1.110       .  S
C1647      H1653   1.101       .  S
C1650      H1654   1.111       .  S
C1650      H1655   1.104       .  S
C1650      H1656   1.110       .  S
C1657      C1658   1.400       .  A
C1657      C1662   1.407       .  A
C1657      H1664   1.084       .  S
C1658      C1659   1.415       .  A
C1659      C1666   1.505       .  S
C1659      C1660   1.409       .  A
C1660      C1661   1.416       .  A
C1660      H1665   1.080       .  S
C1661      C1662   1.437       .  A
C1662      C1663   1.515       .  S
C1663      H1667   1.111       .  S
C1663      H1668   1.106       .  S
C1663      H1669   1.107       .  S
C1666      H1670   1.108       .  S
C1666      H1671   1.107       .  S
C1666      H1672   1.111       .  S
C1673      C1674   1.401       .  A
C1673      C1678   1.422       .  A
C1673      H1680   1.084       .  S
C1674      C1675   1.397       .  A
C1675      C1682   1.506       .  S
C1675      C1676   1.395       .  A
C1676      C1677   1.422       .  A
C1676      H1681   1.063       .  S
C1677      C1678   1.445       .  A
C1678      C1679   1.509       .  S
C1679      H1683   1.108       .  S
C1679      H1684   1.111       .  S
C1679      H1685   1.109       .  S
C1682      H1686   1.110       .  S
C1682      H1687   1.108       .  S
C1682      H1688   1.106       .  S
C1689      C1690   1.405       .  A
C1689      C1694   1.400       .  A
C1689      H1696   1.083       .  S
C1690      C1691   1.434       .  A
C1691      C1698   1.513       .  S
C1691      C1692   1.398       .  A
C1692      C1693   1.410       .  A
C1692      H1697   1.079       .  S
C1693      C1694   1.442       .  A
C1694      C1695   1.513       .  S
C1695      H1699   1.111       .  S
C1695      H1700   1.103       .  S
C1695      H1701   1.101       .  S
C1698      H1702   1.109       .  S
C1698      H1703   1.094       .  S
C1698      H1704   1.112       .  S
C1705      C1706   1.403       .  A
C1705      C1710   1.418       .  A
C1705      H1712   1.084       .  S
C1706      C1707   1.415       .  A
C1707      C1714   1.509       .  S
C1707      C1708   1.408       .  A
C1708      C1709   1.421       .  A
C1708      H1713   1.076       .  S
C1709      C1710   1.444       .  A
C1710      C1711   1.509       .  S
C1711      H1715   1.111       .  S
C1711      H1716   1.104       .  S
C1711      H1717   1.104       .  S
C1714      H1718   1.110       .  S
C1714      H1719   1.109       .  S
C1714      H1720   1.111       .  S
C1721      C1722   1.421       .  A
C1721      C1726   1.403       .  A
C1721      H1728   1.084       .  S
C1722      C1723   1.433       .  A
C1723      C1730   1.508       .  S
C1723      C1724   1.411       .  A
C1724      C1725   1.402       .  A
C1724      H1729   1.084       .  S
C1725      C1726   1.416       .  A
C1726      C1727   1.509       .  S
C1727      H1731   1.111       .  S
C1727      H1732   1.110       .  S
C1727      H1733   1.110       .  S
C1730      H1734   1.109       .  S
C1730      H1735   1.111       .  S
C1730      H1736   1.105       .  S
C1737      C1738   1.427       .  A
C1737      C1742   1.412       .  A
C1737      H1744   1.078       .  S
C1738      C1739   1.456       .  A
C1739      C1746   1.522       .  S
C1739      C1740   1.409       .  A
C1740      C1741   1.394       .  A
C1740      H1745   1.085       .  S
C1741      C1742   1.409       .  A
C1742      C1743   1.507       .  S
C1743      H1747   1.111       .  S
C1743      H1748   1.111       .  S
C1743      H1749   1.109       .  S
C1746      H1750   1.094       .  S
C1746      H1751   1.112       .  S
C1746      H1752   1.111       .  S
C1753      C1754   1.408       .  A
C1753      C1758   1.397       .  A
C1753      H1760   1.044       .  S
C1754      C1755   1.454       .  A
C1755      C1762   1.521       .  S
C1755      C1756   1.397       .  A
C1756      C1757   1.395       .  A
C1756      H1761   1.063       .  S
C1757      C1758   1.417       .  A
C1758      C1759   1.517       .  S
C1759      H1763   1.103       .  S
C1759      H1764   1.110       .  S
C1759      H1765   1.104       .  S
C1762      H1766   1.087       .  S
C1762      H1767   1.109       .  S
C1762      H1768   1.113       .  S
C1769      C1770   1.420       .  A
C1769      C1774   1.415       .  A
C1769      H1776   1.082       .  S
C1770      C1771   1.439       .  A
C1771      C1778   1.504       .  S
C1771      C1772   1.396       .  A
C1772      C1773   1.388       .  A
C1772      H1777   1.085       .  S
C1773      C1774   1.410       .  A
C1774      C1775   1.504       .  S
C1775      H1779   1.111       .  S
C1775      H1780   1.110       .  S
C1775      H1781   1.110       .  S
C1778      H1782   1.111       .  S
C1778      H1783   1.103       .  S
C1778      H1784   1.091       .  S
C1785      C1786   1.419       .  A
C1785      C1790   1.411       .  A
C1785      H1792   1.081       .  S
C1786      C1787   1.440       .  A
C1787      C1794   1.513       .  S
C1787      C1788   1.403       .  A
C1788      C1789   1.399       .  A
C1788      H1793   1.085       .  S
C1789      C1790   1.412       .  A
C1790      C1791   1.506       .  S
C1791      H1795   1.111       .  S
C1791      H1796   1.110       .  S
C1791      H1797   1.109       .  S
C1794      H1798   1.110       .  S
C1794      H1799   1.101       .  S
C1794      H1800   1.108       .  S
C1801      C1802   1.412       .  A
C1801      C1806   1.409       .  A
C1801      H1808   1.081       .  S
C1802      C1803   1.441       .  A
C1803      C1810   1.510       .  S
C1803      C1804   1.393       .  A
C1804      C1805   1.394       .  A
C1804      H1809   1.085       .  S
C1805      C1806   1.415       .  A
C1806      C1807   1.504       .  S
C1807      H1811   1.111       .  S
C1807      H1812   1.106       .  S
C1807      H1813   1.109       .  S
C1810      H1814   1.111       .  S
C1810      H1815   1.087       .  S
C1810      H1816   1.111       .  S
C1817      C1818   1.411       .  A
C1817      C1822   1.398       .  A
C1817      H1824   1.081       .  S
C1818      C1819   1.434       .  A
C1819      C1826   1.513       .  S
C1819      C1820   1.386       .  A
C1820      C1821   1.412       .  A
C1820      H1825   1.074       .  S
C1821      C1822   1.426       .  A
C1822      C1823   1.514       .  S
C1823      H1827   1.112       .  S
C1823      H1828   1.090       .  S
C1823      H1829   1.112       .  S
C1826      H1830   1.111       .  S
C1826      H1831   1.090       .  S
C1826      H1832   1.111       .  S
C1833      C1834   1.427       .  A
C1833      C1838   1.412       .  A
C1833      H1840   1.080       .  S
C1834      C1835   1.442       .  A
C1835      C1842   1.503       .  S
C1835      C1836   1.403       .  A
C1836      C1837   1.393       .  A
C1836      H1841   1.086       .  S
C1837      C1838   1.409       .  A
C1838      C1839   1.505       .  S
C1839      H1843   1.111       .  S
C1839      H1844   1.106       .  S
C1839      H1845   1.109       .  S
C1842      H1846   1.082       .  S
C1842      H1847   1.110       .  S
C1842      H1848   1.112       .  S
C1849      C1850   1.415       .  A
C1849      C1854   1.396       .  A
C1849      H1856   1.058       .  S
C1850      C1851   1.433       .  A
C1851      C1858   1.506       .  S
C1851      C1852   1.422       .  A
C1852      C1853   1.409       .  A
C1852      H1857   1.084       .  S
C1853      C1854   1.407       .  A
C1854      C1855   1.512       .  S
C1855      H1859   1.111       .  S
C1855      H1860   1.110       .  S
C1855      H1861   1.107       .  S
C1858      H1862   1.105       .  S
C1858      H1863   1.110       .  S
C1858      H1864   1.111       .  S
C1865      C1866   1.405       .  A
C1865      C1870   1.396       .  A
C1865      H1872   1.076       .  S
C1866      C1867   1.425       .  A
C1867      C1874   1.511       .  S
C1867      C1868   1.410       .  A
C1868      C1869   1.415       .  A
C1868      H1873   1.070       .  S
C1869      C1870   1.442       .  A
C1870      C1871   1.516       .  S
C1871      H1875   1.110       .  S
C1871      H1876   1.083       .  S
C1871      H1877   1.112       .  S
C1874      H1878   1.103       .  S
C1874      H1879   1.086       .  S
C1874      H1880   1.111       .  S
C1881      C1882   1.417       .  A
C1881      C1886   1.420       .  A
C1881      H1888   1.083       .  S
C1882      C1883   1.461       .  A
C1883      C1890   1.525       .  S
C1883      C1884   1.394       .  A
C1884      C1885   1.381       .  A
C1884      H1889   1.088       .  S
C1885      C1886   1.409       .  A
C1886      C1887   1.503       .  S
C1887      H1891   1.111       .  S
C1887      H1892   1.110       .  S
C1887      H1893   1.110       .  S
C1890      H1894   1.095       .  S
C1890      H1895   1.107       .  S
C1890      H1896   1.112       .  S
C1897      C1898   1.420       .  A
C1897      C1902   1.407       .  A
C1897      H1904   1.063       .  S
C1898      C1899   1.448       .  A
C1899      C1906   1.512       .  S
C1899      C1900   1.428       .  A
C1900      C1901   1.408       .  A
C1900      H1905   1.083       .  S
C1901      C1902   1.413       .  A
C1902      C1903   1.511       .  S
C1903      H1907   1.111       .  S
C1903      H1908   1.110       .  S
C1903      H1909   1.110       .  S
C1906      H1910   1.106       .  S
C1906      H1911   1.103       .  S
C1906      H1912   1.111       .  S
C1913      C1914   1.425       .  A
C1913      C1918   1.414       .  A
C1913      H1920   1.080       .  S
C1914      C1915   1.442       .  A
C1915      C1922   1.505       .  S
C1915      C1916   1.401       .  A
C1916      C1917   1.393       .  A
C1916      H1921   1.084       .  S
C1917      C1918   1.410       .  A
C1918      C1919   1.506       .  S
C1919      H1923   1.111       .  S
C1919      H1924   1.110       .  S
C1919      H1925   1.109       .  S
C1922      H1926   1.111       .  S
C1922      H1927   1.098       .  S
C1922      H1928   1.099       .  S
C1929      C1930   1.418       .  A
C1929      C1934   1.403       .  A
C1929      H1936   1.065       .  S
C1930      C1931   1.439       .  A
C1931      C1938   1.508       .  S
C1931      C1932   1.410       .  A
C1932      C1933   1.400       .  A
C1932      H1937   1.085       .  S
C1933      C1934   1.411       .  A
C1934      C1935   1.509       .  S
C1935      H1939   1.111       .  S
C1935      H1940   1.107       .  S
C1935      H1941   1.110       .  S
C1938      H1942   1.110       .  S
C1938      H1943   1.107       .  S
C1938      H1944   1.111       .  S
C1945      C1946   1.409       .  A
C1945      C1950   1.409       .  A
C1945      H1952   1.074       .  S
C1946      C1947   1.447       .  A
C1947      C1954   1.525       .  S
C1947      C1948   1.396       .  A
C1948      C1949   1.412       .  A
C1948      H1953   1.080       .  S
C1949      C1950   1.426       .  A
C1950      C1951   1.497       .  S
C1951      H1955   1.111       .  S
C1951      H1956   1.091       .  S
C1951      H1957   1.092       .  S
C1954      H1958   1.083       .  S
C1954      H1959   1.107       .  S
C1954      H1960   1.112       .  S
C1961      C1962   1.414       .  A
C1961      C1966   1.413       .  A
C1961      H1968   1.082       .  S
C1962      C1963   1.443       .  A
C1963      C1970   1.515       .  S
C1963      C1964   1.403       .  A
C1964      C1965   1.395       .  A
C1964      H1969   1.085       .  S
C1965      C1966   1.418       .  A
C1966      C1967   1.506       .  S
C1967      H1971   1.111       .  S
C1967      H1972   1.110       .  S
C1967      H1973   1.108       .  S
C1970      H1974   1.110       .  S
C1970      H1975   1.101       .  S
C1970      H1976   1.107       .  S
C1977      C1978   1.415       .  A
C1977      C1982   1.420       .  A
C1977      H1984   1.081       .  S
C1978      C1979   1.442       .  A
C1979      C1986   1.507       .  S
C1979      C1980   1.403       .  A
C1980      C1981   1.394       .  A
C1980      H1985   1.085       .  S
C1981      C1982   1.417       .  A
C1982      C1983   1.503       .  S
C1983      H1987   1.111       .  S
C1983      H1988   1.107       .  S
C1983      H1989   1.110       .  S
C1986      H1990   1.111       .  S
C1986      H1991   1.090       .  S
C1986      H1992   1.105       .  S
C1993      C1994   1.423       .  A
C1993      C1998   1.401       .  A
C1993      H2000   1.084       .  S
C1994      C1995   1.426       .  A
C1995      C2002   1.505       .  S
C1995      C1996   1.415       .  A
C1996      C1997   1.407       .  A
C1996      H2001   1.084       .  S
C1997      C1998   1.411       .  A
C1998      C1999   1.509       .  S
C1999      H2003   1.111       .  S
C1999      H2004   1.108       .  S
C1999      H2005   1.110       .  S
C2002      H2006   1.110       .  S
C2002      H2007   1.105       .  S
C2002      H2008   1.111       .  S
C2009      C2010   1.425       .  A
C2009      C2014   1.389       .  A
C2009      H2016   1.069       .  S
C2010      C2011   1.436       .  A
C2011      C2018   1.502       .  S
C2011      C2012   1.402       .  A
C2012      C2013   1.410       .  A
C2012      H2017   1.083       .  S
C2013      C2014   1.413       .  A
C2014      C2015   1.515       .  S
C2015      H2019   1.108       .  S
C2015      H2020   1.082       .  S
C2015      H2021   1.107       .  S
C2018      H2022   1.101       .  S
C2018      H2023   1.106       .  S
C2018      H2024   1.109       .  S
C2025      C2026   1.416       .  A
C2025      C2030   1.410       .  A
C2025      H2032   1.068       .  S
C2026      C2027   1.438       .  A
C2027      C2034   1.510       .  S
C2027      C2028   1.411       .  A
C2028      C2029   1.402       .  A
C2028      H2033   1.084       .  S
C2029      C2030   1.416       .  A
C2030      C2031   1.511       .  S
C2031      H2035   1.111       .  S
C2031      H2036   1.110       .  S
C2031      H2037   1.110       .  S
C2034      H2038   1.109       .  S
C2034      H2039   1.104       .  S
C2034      H2040   1.111       .  S
C2041      C2042   1.419       .  A
C2041      C2046   1.409       .  A
C2041      H2048   1.080       .  S
C2042      C2043   1.445       .  A
C2043      C2050   1.517       .  S
C2043      C2044   1.409       .  A
C2044      C2045   1.401       .  A
C2044      H2049   1.085       .  S
C2045      C2046   1.412       .  A
C2046      C2047   1.507       .  S
C2047      H2051   1.111       .  S
C2047      H2052   1.111       .  S
C2047      H2053   1.109       .  S
C2050      H2054   1.110       .  S
C2050      H2055   1.100       .  S
C2050      H2056   1.111       .  S
C2057      C2058   1.416       .  A
C2057      C2062   1.385       .  A
C2057      H2064   1.070       .  S
C2058      C2059   1.447       .  A
C2059      C2066   1.513       .  S
C2059      C2060   1.408       .  A
C2060      C2061   1.423       .  A
C2060      H2065   1.078       .  S
C2061      C2062   1.406       .  A
C2062      C2063   1.518       .  S
C2063      H2067   1.112       .  S
C2063      H2068   1.098       .  S
C2063      H2069   1.111       .  S
C2066      H2070   1.100       .  S
C2066      H2071   1.109       .  S
C2066      H2072   1.110       .  S
C2073      C2074   1.397       .  A
C2073      C2078   1.403       .  A
C2073      H2080   1.085       .  S
C2074      C2075   1.416       .  A
C2075      C2082   1.507       .  S
C2075      C2076   1.412       .  A
C2076      C2077   1.415       .  A
C2076      H2081   1.081       .  S
C2077      C2078   1.445       .  A
C2078      C2079   1.513       .  S
C2079      H2083   1.111       .  S
C2079      H2084   1.110       .  S
C2079      H2085   1.094       .  S
C2082      H2086   1.110       .  S
C2082      H2087   1.109       .  S
C2082      H2088   1.111       .  S
C2089      C2090   1.397       .  A
C2089      C2094   1.412       .  A
C2089      H2096   1.084       .  S
C2090      C2091   1.414       .  A
C2091      C2098   1.507       .  S
C2091      C2092   1.415       .  A
C2092      C2093   1.423       .  A
C2092      H2097   1.081       .  S
C2093      C2094   1.438       .  A
C2094      C2095   1.502       .  S
C2095      H2099   1.111       .  S
C2095      H2100   1.101       .  S
C2095      H2101   1.089       .  S
C2098      H2102   1.110       .  S
C2098      H2103   1.109       .  S
C2098      H2104   1.111       .  S
C2105      C2106   1.416       .  A
C2105      C2110   1.412       .  A
C2105      H2112   1.079       .  S
C2106      C2107   1.443       .  A
C2107      C2114   1.510       .  S
C2107      C2108   1.411       .  A
C2108      C2109   1.398       .  A
C2108      H2113   1.084       .  S
C2109      C2110   1.418       .  A
C2110      C2111   1.508       .  S
C2111      H2115   1.111       .  S
C2111      H2116   1.110       .  S
C2111      H2117   1.109       .  S
C2114      H2118   1.107       .  S
C2114      H2119   1.105       .  S
C2114      H2120   1.111       .  S
C2121      C2122   1.426       .  A
C2121      C2126   1.410       .  A
C2121      H2128   1.073       .  S
C2122      C2123   1.442       .  A
C2123      C2130   1.505       .  S
C2123      C2124   1.403       .  A
C2124      C2125   1.397       .  A
C2124      H2129   1.085       .  S
C2125      C2126   1.412       .  A
C2126      C2127   1.509       .  S
C2127      H2131   1.111       .  S
C2127      H2132   1.111       .  S
C2127      H2133   1.109       .  S
C2130      H2134   1.111       .  S
C2130      H2135   1.081       .  S
C2130      H2136   1.111       .  S
C2137      C2138   1.413       .  A
C2137      C2142   1.396       .  A
C2137      H2144   1.080       .  S
C2138      C2139   1.436       .  A
C2139      C2146   1.517       .  S
C2139      C2140   1.404       .  A
C2140      C2141   1.416       .  A
C2140      H2145   1.083       .  S
C2141      C2142   1.425       .  A
C2142      C2143   1.501       .  S
C2143      H2147   1.112       .  S
C2143      H2148   1.091       .  S
C2143      H2149   1.101       .  S
C2146      H2150   1.099       .  S
C2146      H2151   1.111       .  S
C2146      H2152   1.109       .  S
C2153      C2154   1.425       .  A
C2153      C2158   1.390       .  A
C2153      H2160   1.073       .  S
C2154      C2155   1.438       .  A
C2155      C2162   1.508       .  S
C2155      C2156   1.418       .  A
C2156      C2157   1.402       .  A
C2156      H2161   1.084       .  S
C2157      C2158   1.399       .  A
C2158      C2159   1.513       .  S
C2159      H2163   1.110       .  S
C2159      H2164   1.109       .  S
C2159      H2165   1.110       .  S
C2162      H2166   1.102       .  S
C2162      H2167   1.111       .  S
C2162      H2168   1.110       .  S
C2169      C2170   1.410       .  A
C2169      C2174   1.404       .  A
C2169      H2176   1.076       .  S
C2170      C2171   1.430       .  A
C2171      C2178   1.507       .  S
C2171      C2172   1.415       .  A
C2172      C2173   1.405       .  A
C2172      H2177   1.084       .  S
C2173      C2174   1.425       .  A
C2174      C2175   1.511       .  S
C2175      H2179   1.111       .  S
C2175      H2180   1.110       .  S
C2175      H2181   1.111       .  S
C2178      H2182   1.107       .  S
C2178      H2183   1.110       .  S
C2178      H2184   1.111       .  S
C2185      C2186   1.414       .  A
C2185      C2190   1.399       .  A
C2185      H2192   1.076       .  S
C2186      C2187   1.430       .  A
C2187      C2194   1.520       .  S
C2187      C2188   1.382       .  A
C2188      C2189   1.398       .  A
C2188      H2193   1.053       .  S
C2189      C2190   1.427       .  A
C2190      C2191   1.513       .  S
C2191      H2195   1.110       .  S
C2191      H2196   1.109       .  S
C2191      H2197   1.095       .  S
C2194      H2198   1.104       .  S
C2194      H2199   1.100       .  S
C2194      H2200   1.111       .  S
C2201      C2202   1.413       .  A
C2201      C2206   1.426       .  A
C2201      H2208   1.080       .  S
C2202      C2203   1.454       .  A
C2203      C2210   1.518       .  S
C2203      C2204   1.383       .  A
C2204      C2205   1.379       .  A
C2204      H2209   1.088       .  S
C2205      C2206   1.416       .  A
C2206      C2207   1.501       .  S
C2207      H2211   1.111       .  S
C2207      H2212   1.110   1_565  S
C2207      H2213   1.110       .  S
C2210      H2214   1.092       .  S
C2210      H2215   1.109       .  S
C2210      H2216   1.112       .  S
C2217      C2218   1.431       .  A
C2217      C2222   1.402       .  A
C2217      H2224   1.082       .  S
C2218      C2219   1.442       .  A
C2219      C2226   1.502       .  S
C2219      C2220   1.422       .  A
C2220      C2221   1.404       .  A
C2220      H2225   1.084       .  S
C2221      C2222   1.406       .  A
C2222      C2223   1.510       .  S
C2223      H2227   1.111       .  S
C2223      H2228   1.110       .  S
C2223      H2229   1.109       .  S
C2226      H2230   1.105       .  S
C2226      H2231   1.103       .  S
C2226      H2232   1.111       .  S
C2233      C2234   1.418       .  A
C2233      C2238   1.409       .  A
C2233      H2240   1.081       .  S
C2234      C2235   1.435       .  A
C2235      C2242   1.508       .  S
C2235      C2236   1.396       .  A
C2236      C2237   1.397       .  A
C2236      H2241   1.085       .  S
C2237      C2238   1.413       .  A
C2238      C2239   1.506       .  S
C2239      H2243   1.111       .  S
C2239      H2244   1.109       .  S
C2239      H2245   1.110       .  S
C2242      H2246   1.111       .  S
C2242      H2247   1.093       .  S
C2242      H2248   1.111       .  S
C2249      C2250   1.402       .  A
C2249      C2254   1.411       .  A
C2249      H2256   1.085       .  S
C2250      C2251   1.415       .  A
C2251      C2258   1.506       .  S
C2251      C2252   1.403       .  A
C2252      C2253   1.408       .  A
C2252      H2257   1.059       .  S
C2253      C2254   1.438       .  A
C2254      C2255   1.510       .  S
C2255      H2259   1.111       .  S
C2255      H2260   1.104       .  S
C2255      H2261   1.110       .  S
C2258      H2262   1.110       .  S
C2258      H2263   1.102       .  S
C2258      H2264   1.111       .  S
C2265      C2266   1.426       .  A
C2265      C2270   1.405       .  A
C2265      H2272   1.073       .  S
C2266      C2267   1.433       .  A
C2267      C2274   1.513       .  S
C2267      C2268   1.393       .  A
C2268      C2269   1.412       .  A
C2268      H2273   1.077       .  S
C2269      C2270   1.428       .  A
C2270      C2271   1.513       .  S
C2271      H2275   1.111       .  S
C2271      H2276   1.097       .  S
C2271      H2277   1.108       .  S
C2274      H2278   1.088       .  S
C2274      H2279   1.111       .  S
C2274      H2280   1.112       .  S
C2281      C2282   1.401       .  A
C2281      C2286   1.406       .  A
C2281      H2288   1.085       .  S
C2282      C2283   1.413       .  A
C2283      C2290   1.509       .  S
C2283      C2284   1.399       .  A
C2284      C2285   1.418       .  A
C2284      H2289   1.084       .  S
C2285      C2286   1.430       .  A
C2286      C2287   1.507       .  S
C2287      H2291   1.111       .  S
C2287      H2292   1.104       .  S
C2287      H2293   1.109       .  S
C2290      H2294   1.110       .  S
C2290      H2295   1.110       .  S
C2290      H2296   1.111       .  S
C2297      C2298   1.410       .  A
C2297      C2302   1.414       .  A
C2297      H2304   1.083       .  S
C2298      C2299   1.437       .  A
C2299      C2306   1.512       .  S
C2299      C2300   1.412       .  A
C2300      C2301   1.404       .  A
C2300      H2305   1.084       .  S
C2301      C2302   1.422       .  A
C2302      C2303   1.507       .  S
C2303      H2307   1.111       .  S
C2303      H2308   1.110       .  S
C2303      H2309   1.110       .  S
C2306      H2310   1.102       .  S
C2306      H2311   1.109       .  S
C2306      H2312   1.111       .  S
C2313      C2314   1.408       .  A
C2313      C2318   1.381       .  A
C2313      H2320   1.077       .  S
C2314      C2315   1.429       .  A
C2315      C2322   1.521       .  S
C2315      C2316   1.397       .  A
C2316      C2317   1.415       .  A
C2316      H2321   1.062       .  S
C2317      C2318   1.437       .  A
C2318      C2319   1.519       .  S
C2319      H2323   1.112       .  S
C2319      H2324   1.106       .  S
C2319      H2325   1.102       .  S
C2322      H2326   1.110       .  S
C2322      H2327   1.104       .  S
C2322      H2328   1.107       .  S
C2329      C2330   1.430       .  A
C2329      C2334   1.382       .  A
C2329      H2336   1.068       .  S
C2330      C2331   1.433       .  A
C2331      C2338   1.501       .  S
C2331      C2332   1.428       .  A
C2332      C2333   1.409       .  A
C2332      H2337   1.084       .  S
C2333      C2334   1.391       .  A
C2334      C2335   1.514       .  S
C2335      H2339   1.109       .  S
C2335      H2340   1.108       .  S
C2335      H2341   1.110       .  S
C2338      H2342   1.111       .  S
C2338      H2343   1.098       .  S
C2338      H2344   1.110       .  S
C2345      C2346   1.417       .  A
C2345      C2350   1.416       .  A
C2345      H2352   1.080       .  S
C2346      C2347   1.446       .  A
C2347      C2354   1.520       .  S
C2347      C2348   1.399       .  A
C2348      C2349   1.397       .  A
C2348      H2353   1.085       .  S
C2349      C2350   1.418       .  A
C2350      C2351   1.506       .  S
C2351      H2355   1.111       .  S
C2351      H2356   1.109       .  S
C2351      H2357   1.110       .  S
C2354      H2358   1.101       .  S
C2354      H2359   1.110       .  S
C2354      H2360   1.111       .  S
C2361      C2362   1.413       .  A
C2361      C2366   1.418       .  A
C2361      H2368   1.079       .  S
C2362      C2363   1.425       .  A
C2363      C2370   1.508       .  S
C2363      C2364   1.404       .  A
C2364      C2365   1.407       .  A
C2364      H2369   1.084       .  S
C2365      C2366   1.419       .  A
C2366      C2367   1.505       .  S
C2367      H2371   1.111       .  S
C2367      H2372   1.110       .  S
C2367      H2373   1.110       .  S
C2370      H2374   1.104       .  S
C2370      H2375   1.111       .  S
C2370      H2376   1.108       .  S
C2377      C2378   1.410       .  A
C2377      C2382   1.400       .  A
C2377      H2384   1.074       .  S
C2378      C2379   1.428       .  A
C2379      C2386   1.513       .  S
C2379      C2380   1.385       .  A
C2380      C2381   1.408       .  A
C2380      H2385   1.075       .  S
C2381      C2382   1.439       .  A
C2382      C2383   1.515       .  S
C2383      H2387   1.110       .  S
C2383      H2388   1.111       .  S
C2383      H2389   1.088       .  S
C2386      H2390   1.096       .  S
C2386      H2391   1.111       .  S
C2386      H2392   1.112       .  S
C2393      C2394   1.429       .  A
C2393      C2398   1.414       .  A
C2393      H2400   1.062       .  S
C2394      C2395   1.459       .  A
C2395      C2402   1.519       .  S
C2395      C2396   1.400       .  A
C2396      C2397   1.389       .  A
C2396      H2401   1.086       .  S
C2397      C2398   1.407       .  A
C2398      C2399   1.509       .  S
C2399      H2403   1.111       .  S
C2399      H2404   1.111       .  S
C2399      H2405   1.109       .  S
C2402      H2406   1.111       .  S
C2402      H2407   1.086       .  S
C2402      H2408   1.106       .  S
C2409      C2410   1.385       .  A
C2409      C2414   1.395       .  A
C2409      H2416   1.082       .  S
C2410      C2411   1.410       .  A
C2411      C2418   1.503       .  S
C2411      C2412   1.421       .  A
C2412      C2413   1.421       .  A
C2412      H2417   1.081       .  S
C2413      C2414   1.458       .  A
C2414      C2415   1.518       .  S
C2415      H2419   1.111       .  S
C2415      H2420   1.101       .  S
C2415      H2421   1.105       .  S
C2418      H2422   1.110       .  S
C2418      H2423   1.110       .  S
C2418      H2424   1.111       .  S
