geometry optimzed in LAMMPS
_audit_creation_date              2020-11-30 
_audit_creation_method            'lammps2cif' 
_symmetry_space_group_name_H-M    'P1' 
_symmetry_Int_Tables_number       1 
_symmetry_cell_setting            triclinic 
loop_ 
_symmetry_equiv_pos_as_xyz 
  x,y,z 
_cell_length_a                    28.62439134 
_cell_length_b                    38.1315936265769 
_cell_length_c                    47.30988493209799 
_cell_angle_alpha                 89.89204522531583 
_cell_angle_beta                  90.07888222663756 
_cell_angle_gamma                 89.81007879759194 
loop_ 
_atom_site_label 
_atom_site_type_symbol 
_atom_site_fract_x 
_atom_site_fract_y 
_atom_site_fract_z 
_atom_site_charge 
C1          C  0.97317847  0.40138971  0.09473140    -0.02800
C2          C  0.61057200  0.14966986  0.33541627    -0.02800
Zr3        Zr  0.61826153  0.09473182  0.07794775     2.17500
O4          O  0.56379524  0.06765644  0.04489750    -0.51600
O5          O  0.67774525  0.04854607  0.07621756    -0.74800
O6          O  0.64219672  0.10482172  0.02866399    -0.81600
O7          O  0.54806500  0.05909868  0.13878690    -0.83400
O8          O  0.68561785  0.15474703  0.02773634    -0.79000
O9          O  0.57505989  0.04351324  0.09540432    -0.90600
O10         O  0.73468476  0.06311266  0.10765217    -0.76600
O11         O  0.69298741  0.12064309  0.08518414    -0.86100
O12         O  0.63679035  0.08773206  0.12684538    -0.85800
O13         O  0.60863392  0.15594023  0.06595679    -0.72500
O14         O  0.55681349  0.12488569  0.10341704    -0.84700
Zr15       Zr  0.64456900  0.20356846  0.14865225     2.26400
Zr16       Zr  0.68389596  0.18135443  0.07395532     2.06300
Zr17       Zr  0.57631249  0.11729962  0.15213236     2.10000
Zr18       Zr  0.71100903  0.11363673  0.13393552     1.78800
O19         O  0.49281049  0.12695980  0.15809052    -0.93500
O20         O  0.79143346  0.12629097  0.12050297    -0.41300
O21         O  0.65161216  0.14249949  0.16061883    -0.77900
O22         O  0.70515107  0.17400590  0.12255117    -0.96600
O23         O  0.62565233  0.21228872  0.10015999    -0.89900
O24         O  0.56873935  0.17868640  0.14171029    -0.92700
C25         C  0.71688867  0.04319219  0.08888725     1.01000
C26         C  0.55234914  0.03712896  0.11832216     1.13900
C27         C  0.66679897  0.12815365  0.01578223     1.04700
O28         O  0.76483660  0.17488133  0.05900805    -0.94900
O29         O  0.72720373  0.23215525  0.08908711    -0.90600
O30         O  0.71000297  0.24143586  0.13525224    -0.83800
C31         C  0.73345994  0.24800719  0.11262790     1.11400
O32         O  0.49265170  0.16649164  0.05910852    -0.96900
Zr33       Zr  0.55103209  0.18683605  0.09286059     1.88900
O34         O  0.58937991  0.25281145  0.14720434    -0.73500
O35         O  0.66584563  0.22807855  0.04046088    -0.52800
O36         O  0.55420916  0.22203928  0.04982609    -0.97500
O37         O  0.47104372  0.19072456  0.11032125    -0.54700
O38         O  0.54131907  0.24710072  0.10932917    -0.74000
C39         C  0.55762495  0.26452289  0.13033614     0.98300
O40         O  0.67856197  0.24371259  0.18316205    -0.62900
O41         O  0.57675839  0.07751937  0.19253585    -0.57700
O42         O  0.63433372  0.18537213  0.19802085    -0.94300
O43         O  0.58272584  0.14030431  0.19969201    -0.92800
O44         O  0.71659280  0.06466251  0.16693758    -0.93100
O45         O  0.75685204  0.12840756  0.17565616    -0.91900
C46         C  0.60878648  0.16331851  0.21152137     1.17200
H47         H  0.63864827  0.06328518  0.13213658     0.33100
H48         H  0.73592006  0.18300968  0.12643455     0.43900
H49         H  0.54583787  0.18963076  0.15381434     0.37500
H50         H  0.59958060  0.15845456  0.04639201     0.34000
H51         H  0.81069929  0.10959314  0.13158774     0.25700
H52         H  0.69496661  0.23119291  0.02947653     0.31700
H53         H  0.56796701  0.24469700  0.05564742     0.37600
H54         H  0.74990222  0.05756298  0.16655440     0.32000
H55         H  0.54443006  0.06852388  0.19395946     0.30900
H56         H  0.47790410  0.10627399  0.14929345     0.32600
H57         H  0.47306143  0.20354190  0.12844998     0.31600
H58         H  0.74675148  0.15248067  0.18061878     0.35600
H59         H  0.65309135  0.25010101  0.19635139     0.28300
H60         H  0.58330684  0.05389097  0.03164776     0.32500
H61         H  0.47492411  0.18766564  0.05331333     0.35400
H62         H  0.59577765  0.05711310  0.18655215     0.28000
H63         H  0.70083610  0.22956726  0.19451116     0.40900
H64         H  0.78357474  0.17852853  0.07635342     0.30900
H65         H  0.79414350  0.11794091  0.10076723     0.38500
H66         H  0.46275797  0.16644856  0.11573061     0.30400
H67         H  0.64356703  0.21760180  0.02689335     0.30500
H68         H  0.55116824  0.08729684  0.03345209     0.30700
C69         C  0.73858263  0.11581832  0.35233747     0.86200
C70         C  0.72626238  0.10782639  0.38304445    -0.54100
C71         C  0.69669927  0.13127472  0.39511933     0.09100
C72         C  0.68116489  0.16115944  0.37508949     0.20100
C73         C  0.69130564  0.11862189  0.33729833    -0.54800
C74         C  0.66008813  0.14259053  0.34849376     0.09200
C75         C  0.75635353  0.15347412  0.35204213    -0.54300
C76         C  0.72729635  0.17699800  0.36450373     0.09800
H77         H  0.74153949  0.08610359  0.39480570     0.14300
H78         H  0.65901094  0.18095234  0.38563171     0.00000
H79         H  0.68583486  0.10563479  0.31763701     0.14600
H80         H  0.78999385  0.16098863  0.34336700     0.14400
Zr81       Zr  0.96050432  0.44824619  0.33319653     2.17500
O82         O  0.01613276  0.47280787  0.29961098    -0.51600
O83         O  0.90308716  0.49503545  0.32829897    -0.74800
O84         O  0.93801618  0.43379100  0.28419308    -0.81600
O85         O  0.02741881  0.48811014  0.39411162    -0.83400
O86         O  0.90071278  0.38121371  0.28454934    -0.79000
O87         O  0.00497642  0.49964632  0.34888385    -0.90600
O88         O  0.84335370  0.48192039  0.35816154    -0.76600
O89         O  0.88586872  0.42160082  0.33951295    -0.86100
O90         O  0.93754929  0.45898739  0.38086674    -0.85800
O91         O  0.97311174  0.38663862  0.32534397    -0.72500
O92         O  0.02010221  0.42229490  0.36276155    -0.84700
Zr93       Zr  0.93010172  0.34347556  0.40879956     2.26400
Zr94       Zr  0.89820143  0.36019211  0.33227849     2.06300
Zr95       Zr  0.99545596  0.43205103  0.41002102     2.10000
Zr96       Zr  0.86370421  0.43240712  0.38718371     1.78800
O97         O  0.07717586  0.42009610  0.42087678    -0.93500
O98         O  0.78372537  0.41955247  0.37299110    -0.41300
O99         O  0.92057439  0.40539968  0.41699913    -0.77900
O100        O  0.87156786  0.37115730  0.37942799    -0.96600
O101        O  0.95516932  0.33296011  0.36160392    -0.89900
O102        O  0.00558490  0.37010486  0.40386123    -0.92700
C103        C  0.86307488  0.50106106  0.33948477     1.01000
C104        C  0.02581000  0.50791898  0.37207916     1.13900
C105        C  0.91751406  0.40789464  0.27178222     1.04700
O106        O  0.82098679  0.35954124  0.31060842    -0.94900
O107        O  0.85288422  0.31110514  0.34885447    -0.90600
O108        O  0.86469914  0.30489394  0.39599152    -0.83800
C109        C  0.84389131  0.29673605  0.37275052     1.11400
O110        O  0.09725476  0.38296225  0.33133668    -0.96900
Zr111      Zr  0.02925487  0.36031691  0.35629665     1.88900
O112        O  0.98097133  0.29134920  0.40642943    -0.73500
O113        O  0.92724101  0.31131230  0.30420689    -0.52800
O114        O  0.04778064  0.33155164  0.31173167    -0.97500
O115        O  0.10034006  0.35128285  0.38409434    -0.54700
O116        O  0.02734119  0.29897610  0.36825897    -0.74000
C117        C  0.01043383  0.27992377  0.38806077     0.98300
O118        O  0.89467468  0.30500908  0.44405969    -0.62900
O119        O  0.99110749  0.47647136  0.44692584    -0.57700
O120        O  0.94089904  0.36306867  0.45816066    -0.94300
O121        O  0.98037175  0.41454931  0.45789406    -0.92800
O122        O  0.85821305  0.48014421  0.42123554    -0.93100
O123        O  0.81291765  0.42265022  0.42764956    -0.91900
C124        C  0.95956285  0.38951944  0.47077842     1.17200
H125        H  0.93533090  0.48382300  0.38465776     0.33100
H126        H  0.84052062  0.36236502  0.38256217     0.43900
H127        H  0.02706762  0.36046782  0.41758495     0.37500
H128        H  0.98410312  0.38276762  0.30632067     0.34000
H129        H  0.76584506  0.44103081  0.37770449     0.25700
H130        H  0.90296851  0.30758798  0.28959861     0.31700
H131        H  0.06326230  0.30925623  0.31709236     0.37600
H132        H  0.86382076  0.50188987  0.41031094     0.32000
H133        H  0.02245073  0.48732287  0.44784141     0.30900
H134        H  0.09383801  0.44181105  0.41550536     0.32600
H135        H  0.12239227  0.33946636  0.37108185     0.31600
H136        H  0.81618019  0.39730978  0.43184392     0.35600
H137        H  0.92055928  0.29686047  0.45635229     0.28300
H138        H  0.99704750  0.48596198  0.28567741     0.32500
H139        H  0.09897736  0.40806413  0.33653051     0.35400
H140        H  0.97032179  0.49497298  0.43920939     0.28000
H141        H  0.87483814  0.32005440  0.45618714     0.40900
H142        H  0.79904862  0.36395621  0.32636912     0.30900
H143        H  0.78463259  0.41932574  0.35208259     0.38500
H144        H  0.09262778  0.33290056  0.39811719     0.30400
H145        H  0.95425364  0.32087639  0.29369969     0.30500
H146        H  0.02861176  0.45242131  0.28907055     0.30700
C147        C  0.84135475  0.42794948  0.10758641     0.86200
C148        C  0.84740015  0.43060264  0.13966671    -0.54100
C149        C  0.87768667  0.40683582  0.15131819     0.09100
C150        C  0.89755512  0.38057553  0.12919898     0.20100
C151        C  0.89171706  0.42932915  0.09618393    -0.54800
C152        C  0.92203340  0.40402706  0.10660875     0.09200
C153        C  0.82629606  0.39037716  0.10217896    -0.54300
C154        C  0.85428194  0.36572649  0.11414100     0.09800
H155        H  0.82848685  0.44992252  0.15195896     0.14300
H156        H  0.91867566  0.35926654  0.13831900     0.00000
H157        H  0.90301542  0.44830345  0.08081764     0.14600
H158        H  0.79399805  0.38367462  0.09139341     0.14400
C159        C  0.46881356  0.40236816  0.15438001    -0.02800
C160        C  0.10617327  0.14499832  0.40283998    -0.02800
Zr161      Zr  0.12071654  0.20279287  0.16619002     2.17500
O162        O  0.06577936  0.22631919  0.20069822    -0.51600
O163        O  0.18197682  0.24665383  0.16911051    -0.74800
O164        O  0.14618256  0.18786183  0.21453987    -0.81600
O165        O  0.06052644  0.24584999  0.10457166    -0.83400
O166        O  0.18351509  0.13484515  0.21371491    -0.79000
O167        O  0.07880211  0.25658050  0.15051877    -0.90600
O168        O  0.24589066  0.21754371  0.15412299    -0.76600
O169        O  0.19397858  0.17357645  0.16026418    -0.86100
O170        O  0.14613636  0.21385009  0.11893022    -0.85800
O171        O  0.10684614  0.14112100  0.17363492    -0.72500
O172        O  0.06126137  0.17879088  0.13574715    -0.84700
Zr173      Zr  0.14868927  0.09867008  0.08991389     2.26400
Zr174      Zr  0.18082720  0.11246076  0.16638876     2.06300
Zr175      Zr  0.08843753  0.18896910  0.08882504     2.10000
Zr176      Zr  0.21916365  0.18517051  0.11347681     1.78800
O177        O  0.00635091  0.18928913  0.07526159    -0.93500
O178        O  0.30040272  0.16746352  0.11945807    -0.41300
O179        O  0.16215363  0.16030716  0.08248317    -0.77900
O180        O  0.20849705  0.12372314  0.11943615    -0.96600
O181        O  0.12259575  0.08774634  0.13671737    -0.89900
O182        O  0.07465775  0.12749609  0.09508903    -0.92700
C183        C  0.22592408  0.24476885  0.16407202     1.01000
C184        C  0.06149440  0.26593029  0.12637559     1.13900
C185        C  0.16816791  0.16212363  0.22639069     1.04700
O186        O  0.26078841  0.11103621  0.18393308    -0.94900
O187        O  0.22317922  0.06149872  0.14990228    -0.90600
O188        O  0.20995911  0.05602064  0.10287845    -0.83800
C189        C  0.23045820  0.04667751  0.12597556     1.11400
O190        O  0.98330469  0.14090579  0.16822212    -0.96900
Zr191      Zr  0.04976969  0.11704362  0.14230846     1.88900
O192        O  0.09912824  0.04643564  0.09295525    -0.73500
O193        O  0.15261853  0.06523638  0.19654479    -0.52800
O194        O  0.03371423  0.08405157  0.18540546    -0.97500
O195        O  0.97704237  0.11256079  0.11549767    -0.54700
O196        O  0.04733315  0.05648259  0.12812776    -0.74000
C197        C  0.06648394  0.03644046  0.10976408     0.98300
O198        O  0.18431885  0.07062941  0.04890874    -0.62900
O199        O  0.10969170  0.23240611  0.05326303    -0.57700
O200        O  0.12893189  0.11465756  0.04104208    -0.94300
O201        O  0.09418662  0.16842322  0.04090041    -0.92800
O202        O  0.22778789  0.24310463  0.09223397    -0.93100
O203        O  0.26472439  0.18309332  0.07009736    -0.91900
C204        C  0.11035951  0.14122910  0.02838353     1.17200
H205        H  0.14936464  0.23871068  0.11556063     0.33100
H206        H  0.23883495  0.11339611  0.11616440     0.43900
H207        H  0.05260324  0.11880722  0.08135365     0.37500
H208        H  0.09615667  0.13719514  0.19273586     0.34000
H209        H  0.31776279  0.18976558  0.12133406     0.25700
H210        H  0.14019822  0.04744067  0.18332870     0.31700
H211        H  0.05124441  0.06177859  0.18339506     0.37600
H212        H  0.26049483  0.24983905  0.09628603     0.32000
H213        H  0.08014994  0.24453812  0.04833827     0.30900
H214        H  0.00442917  0.20627022  0.05944238     0.32600
H215        H  0.98171060  0.09298854  0.10206152     0.31600
H216        H  0.26178624  0.15856135  0.06351380     0.35600
H217        H  0.21816884  0.07561523  0.05037883     0.28300
H218        H  0.08475516  0.24131285  0.21330624     0.32500
H219        H  0.96088658  0.12133139  0.17021468     0.35400
H220        H  0.12833490  0.25015380  0.06350264     0.28000
H221        H  0.18145585  0.04506108  0.05216778     0.40900
H222        H  0.26993656  0.13598697  0.18540729     0.30900
H223        H  0.30177396  0.15682121  0.13853636     0.38500
H224        H  0.97589520  0.13383476  0.10351697     0.30400
H225        H  0.18128703  0.05438263  0.20443412     0.30500
H226        H  0.05665836  0.20602382  0.21254366     0.30700
C227        C  0.23736273  0.17723928  0.39019185     0.86200
C228        C  0.23008847  0.18039429  0.35833666    -0.54100
C229        C  0.20255124  0.15519767  0.34662297     0.09100
C230        C  0.18351093  0.12881406  0.36861170     0.20100
C231        C  0.18744609  0.17661604  0.40238829    -0.54800
C232        C  0.15805088  0.15084513  0.39203807     0.09200
C233        C  0.25479696  0.14001014  0.39513894    -0.54300
C234        C  0.22761476  0.11476437  0.38342396     0.09800
H235        H  0.24553829  0.20147224  0.34605808     0.14300
H236        H  0.16294219  0.10771317  0.35867337     0.00000
H237        H  0.17773248  0.19454021  0.41836468     0.14600
H238        H  0.28744367  0.13406952  0.40587579     0.17600
Zr239      Zr  0.46319229  0.34288858  0.41085945     2.17500
O240        O  0.52088311  0.31793968  0.44313540    -0.51600
O241        O  0.40391994  0.29654970  0.41321370    -0.74800
O242        O  0.43915052  0.35100723  0.46060571    -0.81600
O243        O  0.52796211  0.30895424  0.34783160    -0.83400
O244        O  0.40539070  0.40499063  0.46430351    -0.79000
O245        O  0.50967347  0.29336480  0.39276943    -0.90600
O246        O  0.34111361  0.31506552  0.38765472    -0.76600
O247        O  0.38810969  0.36942574  0.40590958    -0.86100
O248        O  0.44063841  0.33604888  0.36256513    -0.85800
O249        O  0.47497316  0.40378701  0.42269916    -0.72500
O250        O  0.52175071  0.37270214  0.38273830    -0.84700
Zr251      Zr  0.43050588  0.45284090  0.34189289     2.26400
Zr252      Zr  0.39906737  0.42975970  0.41743446     2.06300
Zr253      Zr  0.49726435  0.36629778  0.33470432     2.10000
Zr254      Zr  0.36610204  0.36220986  0.35766180     1.78800
O255        O  0.57875193  0.37215324  0.32080752    -0.93500
O256        O  0.28342196  0.37262931  0.36681576    -0.41300
O257        O  0.42162849  0.39233630  0.32892497    -0.77900
O258        O  0.37291909  0.42237062  0.36962557    -0.96600
O259        O  0.45511567  0.46058662  0.38956791    -0.89900
O260        O  0.50672003  0.42728096  0.34557128    -0.92700
C261        C  0.36176116  0.29332818  0.40405118     1.01000
C262        C  0.52914724  0.28731162  0.36869239     1.13900
C263        C  0.42041573  0.37616624  0.47491924     1.04700
O264        O  0.32104742  0.42396602  0.43735458    -0.94900
O265        O  0.35163272  0.47901797  0.40335684    -0.90600
O266        O  0.36667417  0.98995359  0.35624312    -0.83800
C267        C  0.34447592  0.99518771  0.37947902     1.11400
O268        O  0.59394638  0.41293011  0.42332841    -0.96900
Zr269      Zr  0.53019541  0.43408178  0.39348667     1.88900
O270        O  0.48324125  0.00423841  0.34403318    -0.73500
O271        O  0.41820900  0.47863640  0.44835467    -0.52800
O272        O  0.53626129  0.47011833  0.43582389    -0.97500
O273        O  0.60762817  0.43489176  0.37196608    -0.54700
O274        O  0.53949630  0.49361773  0.37577501    -0.74000
C275        C  0.51915857  0.01362777  0.35837611     0.98300
O276        O  0.39009639  0.49151379  0.30862688    -0.62900
O277        O  0.48365516  0.32516084  0.29619842    -0.57700
O278        O  0.44405252  0.43970269  0.29186490    -0.94300
O279        O  0.49199548  0.39233194  0.28810499    -0.92800
O280        O  0.36772796  0.31192880  0.32591737    -0.93100
O281        O  0.31792705  0.37413896  0.31619500    -0.91900
C282        C  0.46834313  0.41771275  0.27745448     1.17200
H283        H  0.43904699  0.31152268  0.35765885     0.33100
H284        H  0.34169113  0.43121742  0.36683159     0.43900
H285        H  0.52831514  0.43835292  0.33272053     0.37500
H286        H  0.48604317  0.40584496  0.44190513     0.34000
H287        H  0.26774135  0.35046157  0.36153424     0.25700
H288        H  0.39144542  0.48026190  0.46153432     0.31700
H289        H  0.51810484  0.49160796  0.43146146     0.37600
H290        H  0.34034133  0.29766918  0.33139444     0.32000
H291        H  0.51478364  0.31521134  0.29177217     0.30900
H292        H  0.59594967  0.35525865  0.33288220     0.32600
H293        H  0.60530835  0.45132695  0.35580162     0.31600
H294        H  0.34040927  0.37891395  0.30078509     0.35600
H295        H  0.41436407  0.50153126  0.29611469     0.28300
H296        H  0.50297952  0.30361602  0.45679849     0.32500
H297        H  0.61336455  0.43373879  0.42752475     0.35400
H298        H  0.46611184  0.30549660  0.30476529     0.28000
H299        H  0.37090549  0.47619580  0.29637836     0.40900
H300        H  0.31278942  0.39902009  0.43457999     0.30900
H301        H  0.28091293  0.37354818  0.38766708     0.38500
H302        H  0.61127089  0.41150263  0.36322076     0.30400
H303        H  0.44443306  0.47003619  0.46016650     0.30500
H304        H  0.53252257  0.33812581  0.45421683     0.30700
C305        C  0.34621313  0.36085367  0.13928603     0.86200
C306        C  0.35764245  0.35518052  0.10818004    -0.54100
C307        C  0.38240909  0.38138568  0.09552179     0.09100
C308        C  0.39453035  0.41155938  0.11644620     0.20100
C309        C  0.39408516  0.36619500  0.15313869    -0.54800
C310        C  0.41977119  0.39346715  0.14210843     0.09200
C311        C  0.32297726  0.39685436  0.14113946    -0.54300
C312        C  0.34708865  0.42325175  0.12879439     0.09800
H313        H  0.34709374  0.33144642  0.09730582     0.14300
H314        H  0.41335969  0.43361582  0.10657827     0.00000
H315        H  0.40660241  0.35094959  0.17088707     0.14600
H316        H  0.28916458  0.40108586  0.15101082     0.14400
C317        C  0.41306890  0.37199634  0.00574065    -0.05800
C318        C  0.44314634  0.39108192  0.02336553    -0.33200
C319        C  0.43362379  0.39522177  0.05235773     0.36100
C320        C  0.39350278  0.37967417  0.06439169    -0.06100
C321        C  0.36321981  0.36096740  0.04620199    -0.33100
C322        C  0.37286982  0.35694674  0.01738660     0.36000
H323        H  0.47341720  0.40392826  0.01437986     0.16300
O324        O  0.46405082  0.41432556  0.06849032    -0.60600
H325        H  0.33085793  0.35006176  0.05401008     0.16300
O326        O  0.35068771  0.33374326  0.50107619    -0.60700
H327        H  0.35358705  0.31576686  0.99849326     0.43300
H328        H  0.45886860  0.43913530  0.06293991     0.43300
C329        C  0.27254824  0.20488553  0.40039488    -0.05800
C330        C  0.25912337  0.23433324  0.41654764    -0.33200
C331        C  0.28997841  0.26243569  0.42072227     0.36100
C332        C  0.33557759  0.26101181  0.40972305    -0.06100
C333        C  0.35048461  0.23070638  0.39591597    -0.33100
C334        C  0.31950499  0.20319693  0.39071678     0.36000
H335        H  0.22398076  0.23743563  0.42431361     0.16300
O336        O  0.27459340  0.29200763  0.43439335    -0.60600
H337        H  0.38494606  0.22982112  0.38644049     0.16300
O338        O  0.33425451  0.17628975  0.37363689    -0.60700
H339        H  0.35722536  0.16281992  0.38506580     0.43300
H340        H  0.25539288  0.30491104  0.42031072     0.43300
C341        C  0.24436433  0.07836380  0.38267320    -0.05800
C342        C  0.25443071  0.06294256  0.35656539    -0.33200
C343        C  0.28535495  0.03447116  0.35507869     0.36100
C344        C  0.30653459  0.02153585  0.38002054    -0.06100
C345        C  0.29141958  0.03443345  0.40627812    -0.33100
C346        C  0.26040987  0.06254599  0.40769662     0.36000
H347        H  0.24126901  0.07459432  0.33720308     0.16300
O348        O  0.29479578  0.01972060  0.32927783    -0.60600
H349        H  0.30534218  0.02396457  0.42586856     0.16300
O350        O  0.24707152  0.07535136  0.43358638    -0.60700
H351        H  0.27505932  0.08707805  0.44147474     0.43300
H352        H  0.31539238  0.03667976  0.31946762     0.43300
C353        C  0.19331356  0.15465007  0.31549770    -0.05800
C354        C  0.22894219  0.16548473  0.29690346    -0.33200
C355        C  0.22061727  0.16915883  0.26793753     0.36100
C356        C  0.17592855  0.16262993  0.25700770    -0.06100
C357        C  0.14069267  0.15057923  0.27505267    -0.33100
C358        C  0.14925536  0.14586863  0.30402312     0.36000
H359        H  0.26370569  0.17091313  0.30479765     0.16300
O360        O  0.25670516  0.17821904  0.25034387    -0.60600
H361        H  0.10672808  0.14389181  0.26650306     0.16300
O362        O  0.11377187  0.13386813  0.32085678    -0.60700
H363        H  0.11125282  0.10845800  0.31668924     0.43300
H364        H  0.25572732  0.20418291  0.24926267     0.43300
C365        C  0.25355625  0.27683662  0.16483216    -0.05800
C366        C  0.23755417  0.30428644  0.14788344    -0.33200
C367        C  0.26759783  0.33076857  0.13944653     0.36100
C368        C  0.31390218  0.33219351  0.15009892    -0.06100
C369        C  0.32911768  0.30535833  0.16852288    -0.33100
C370        C  0.29951772  0.27739465  0.17536083     0.36000
H371        H  0.20289052  0.30331592  0.13861873     0.16300
O372        O  0.25177547  0.35444925  0.11970199    -0.60600
H373        H  0.36453850  0.30438816  0.17630900     0.16300
O374        O  0.31663614  0.24977343  0.19087932    -0.60700
H375        H  0.30709957  0.25464571  0.21063115     0.43300
H376        H  0.25567484  0.34265591  0.10117767     0.43300
C377        C  0.26524133  0.01736762  0.12560176    -0.05800
C378        C  0.28247158  0.00444863  0.15151935    -0.33200
C379        C  0.31073712  0.47455033  0.15301630     0.36100
C380        C  0.32630774  0.45886952  0.12781777    -0.06100
C381        C  0.31295771  0.47358425  0.10184565    -0.33100
C382        C  0.28202653  0.50231115  0.10083902     0.36000
H383        H  0.27164678  0.01606394  0.17134499     0.16300
O384        O  0.32413754  0.46124105  0.17878376    -0.60600
H385        H  0.32422721  0.46146194  0.08229904     0.16300
O386        O  0.26832148  0.51500450  0.07498915    -0.60700
H387        H  0.29092128  0.53384531  0.07046232     0.43300
H388        H  0.29966020  0.95028105  0.18635644     0.43300
C389        C  0.10615125  0.14385526  0.43646755    -0.05800
C390        C  0.09432013  0.11304994  0.45193922    -0.33200
C391        C  0.09652916  0.11176973  0.98154509     0.36100
C392        C  0.10806936  0.14160792  0.99711349    -0.06100
C393        C  0.11355103  0.17341149  0.98274928    -0.33100
C394        C  0.11303416  0.17472150  0.45327038     0.36000
H395        H  0.08006611  0.09016235  0.44202722     0.16300
O396        O  0.08672815  0.08076131  0.99500429    -0.60600
H397        H  0.11914624  0.19728354  0.99467222     0.16300
O398        O  0.11119291  0.20776171  0.44143913    -0.60700
H399        H  0.13499098  0.22240159  0.45108289     0.43300
H400        H  0.11562665  0.06649883  0.99329480     0.43300
C401        C  0.46732769  0.41163140  0.18657862    -0.05800
C402        C  0.42510136  0.41371946  0.20210955    -0.33200
C403        C  0.42506329  0.41749250  0.23154329     0.36100
C404        C  0.46739748  0.42033950  0.24633224    -0.06100
C405        C  0.50922757  0.42193954  0.23112685    -0.33100
C406        C  0.50947058  0.41854074  0.20157722     0.36000
H407        H  0.39151580  0.41203493  0.19187856     0.16300
O408        O  0.38338506  0.41664242  0.24580992    -0.60600
H409        H  0.54207747  0.42481687  0.24228594     0.16300
O410        O  0.55145810  0.41994169  0.18764993    -0.60700
H411        H  0.56936677  0.89920858  0.19153279     0.43300
H412        H  0.37807235  0.39152471  0.25022211     0.43300
C413        C  0.04696998  0.04340267  0.37397046    -0.05800
C414        C  0.09045529  0.04494038  0.38734172    -0.33200
C415        C  0.11037566  0.07701486  0.39537603     0.36100
C416        C  0.08687406  0.10948421  0.39025673    -0.06100
C417        C  0.04464086  0.10759289  0.37447745    -0.33100
C418        C  0.02486638  0.07517149  0.36651823     0.36000
H419        H  0.11055381  0.52103309  0.39385064     0.16300
O420        O  0.15173076  0.07637566  0.41011010    -0.60600
H421        H  0.02537363  0.13103073  0.36894265     0.16300
O422        O  0.98210333  0.07491904  0.35341580    -0.60700
H423        H  0.98901578  0.07232088  0.33299225     0.43300
H424        H  0.14773827  0.05973794  0.42607262     0.43300
C425        C  0.02768883  0.24290011  0.38917120    -0.05800
C426        C  0.06305673  0.23306940  0.37030644    -0.33200
C427        C  0.08599750  0.20087302  0.37243093     0.36100
C428        C  0.07402317  0.17658247  0.39390193    -0.06100
C429        C  0.03276232  0.18410364  0.40950965    -0.33100
C430        C  0.01065585  0.21718009  0.40791455     0.36000
H431        H  0.07474025  0.25096003  0.35398636     0.16300
O432        O  0.11889985  0.19330570  0.35248599    -0.60600
H433        H  0.01995488  0.16536032  0.42485697     0.16300
O434        O  0.97385302  0.22435141  0.42552195    -0.60700
H435        H  0.94627571  0.21355836  0.41632454     0.43300
H436        H  0.14214908  0.21252827  0.35336024     0.43300
C437        C  0.91236477  0.40805168  0.24064777    -0.05800
C438        C  0.90406981  0.43955613  0.22642536    -0.33200
C439        C  0.89301965  0.43983014  0.19756824     0.36100
C440        C  0.89141270  0.40796244  0.18197122    -0.06100
C441        C  0.90304073  0.37671766  0.19604876    -0.33100
C442        C  0.91271567  0.37645212  0.22506398     0.36000
H443        H  0.90434748  0.46410701  0.23793019     0.16300
O444        O  0.88559552  0.47169311  0.18480598    -0.60600
H445        H  0.90335201  0.35201854  0.18488952     0.16300
O446        O  0.92156969  0.34493924  0.23809475    -0.60700
H447        H  0.95476862  0.33957844  0.23391657     0.43300
H448        H  0.85633644  0.48105809  0.19315709     0.43300
C449        C  0.77474692  0.08959594  0.34151278    -0.05800
C450        C  0.76251590  0.06161828  0.32345817    -0.33200
C451        C  0.79315248  0.03336403  0.31938615     0.36100
C452        C  0.83726523  0.03344805  0.33236462    -0.06100
C453        C  0.85132577  0.06248477  0.34800273    -0.33100
C454        C  0.82034800  0.08990811  0.35329718     0.36000
H455        H  0.72798712  0.05940238  0.31450303     0.16300
O456        O  0.77833491  0.50308929  0.30751278    -0.60600
H457        H  0.88450636  0.06198284  0.35909238     0.16300
O458        O  0.83307576  0.11471573  0.37282136    -0.60700
H459        H  0.85758964  0.12896821  0.36351013     0.43300
H460        H  0.76110700  0.48937377  0.32194227     0.43300
C461        C  0.80642353  0.26970978  0.37278067    -0.05800
C462        C  0.78379714  0.26191455  0.34705594    -0.33200
C463        C  0.75307908  0.23376277  0.34489554     0.36100
C464        C  0.74333984  0.21321899  0.36871352    -0.06100
C465        C  0.76157433  0.22296439  0.39506719    -0.33100
C466        C  0.79330400  0.25085090  0.39726248     0.36000
H467        H  0.79162308  0.27645509  0.32796521     0.16300
O468        O  0.73481009  0.22509817  0.31900063    -0.60600
H469        H  0.75405746  0.20733256  0.41359263     0.16300
O470        O  0.81216567  0.25857857  0.42317216    -0.60700
H471        H  0.83700475  0.24077622  0.42627372     0.43300
H472        H  0.76008544  0.21228933  0.30902983     0.43300
C473        C  0.52958313  0.00225042  0.12231608    -0.05800
C474        C  0.48595751  0.00105406  0.13552327    -0.33200
C475        C  0.46445795  0.46883235  0.14415909     0.36100
C476        C  0.48836665  0.43639277  0.14014646    -0.06100
C477        C  0.53198676  0.43786436  0.12606824    -0.33100
C478        C  0.55225361  0.97024796  0.11622571     0.36000
H479        H  0.46764183  0.02526065  0.14027532     0.16300
O480        O  0.42209560  0.46993249  0.15761871    -0.60600
H481        H  0.55299689  0.41455239  0.12339154     0.16300
O482        O  0.59543504  0.97020803  0.10372504    -0.60700
H483        H  0.58875644  0.46745183  0.08411643     0.43300
H484        H  0.42925268  0.98144910  0.17576525     0.43300
C485        C  0.53806945  0.30019770  0.13609370    -0.05800
C486        C  0.53122938  0.31065024  0.16407276    -0.33200
C487        C  0.50958870  0.34263271  0.17080154     0.36100
C488        C  0.49780858  0.36765531  0.14919212    -0.06100
C489        C  0.50525459  0.35650539  0.12102998    -0.33100
C490        C  0.52470427  0.32353077  0.11441041     0.36000
H491        H  0.53990457  0.29271612  0.18110986     0.16300
O492        O  0.49753388  0.34723736  0.19857486    -0.60600
H493        H  0.49447435  0.37319823  0.10381683     0.16300
O494        O  0.52988097  0.31424004  0.08659193    -0.60700
H495        H  0.55672262  0.32815448  0.07960216     0.43300
H496        H  0.46886658  0.33315167  0.20144683     0.43300
C497        C  0.68839183  0.13022303  0.42590993    -0.05800
C498        C  0.64534158  0.11904879  0.43671508    -0.33200
C499        C  0.63877586  0.11547234  0.46602368     0.36100
C500        C  0.67564215  0.12325323  0.48481820    -0.06100
C501        C  0.71890534  0.13370357  0.47371966    -0.33100
C502        C  0.72561569  0.13667000  0.44460620     0.36000
H503        H  0.61705035  0.11266424  0.42241554     0.16300
O504        O  0.59603275  0.10516832  0.47604022    -0.60600
H505        H  0.74769790  0.13984183  0.48774912     0.16300
O506        O  0.76864324  0.14635726  0.43457245    -0.60700
H507        H  0.78721740  0.12437768  0.43385300     0.43300
H508        H  0.57784908  0.12716034  0.47832601     0.43300
C509        C  0.74284477  0.01068650  0.08406943    -0.05800
C510        C  0.72776313  0.98089484  0.09855537    -0.33200
C511        C  0.75829767  0.45241998  0.10664103     0.36100
C512        C  0.80499974  0.45446727  0.09670105    -0.06100
C513        C  0.81975429  0.98429787  0.07920581    -0.33100
C514        C  0.78879849  0.01202561  0.07385305     0.36000
H515        H  0.69300441  0.98031525  0.10760815     0.16300
O516        O  0.74471319  0.42584295  0.12441049    -0.60600
H517        H  0.85498047  0.98748389  0.07175331     0.16300
O518        O  0.80461909  0.04143837  0.06016160    -0.60700
H519        H  0.82048347  0.05555131  0.07490142     0.43300
H520        H  0.72315666  0.41111961  0.11310959     0.43300
C521        C  0.77113591  0.27472458  0.11392595    -0.05800
C522        C  0.78033893  0.29201787  0.13955165    -0.33200
C523        C  0.81302992  0.31917544  0.14090275     0.36100
C524        C  0.83683019  0.32963166  0.11634709    -0.06100
C525        C  0.83075286  0.31070058  0.09135361    -0.33100
C526        C  0.79829223  0.28346926  0.08990151     0.36000
H527        H  0.76081522  0.28559021  0.15845071     0.16300
O528        O  0.81745186  0.33795909  0.16545035    -0.60600
H529        H  0.84852329  0.31893488  0.07224756     0.16300
O530        O  0.79243981  0.26655457  0.06457799    -0.60700
H531        H  0.77296639  0.28256087  0.05289215     0.43300
H532        H  0.83056604  0.32126469  0.17949389     0.43300
C533        C  0.58129814  0.11489115  0.33999784    -0.05800
C534        C  0.54035507  0.11256784  0.35673978    -0.33200
C535        C  0.52001825  0.07989320  0.36354220     0.36100
C536        C  0.53892916  0.04867317  0.35256156    -0.06100
C537        C  0.57480556  0.05094417  0.33299050    -0.33100
C538        C  0.59349243  0.08330610  0.32525334     0.36000
H539        H  0.52191357  0.13566598  0.36347370     0.16300
O540        O  0.48093446  0.07889057  0.38024327    -0.60600
H541        H  0.58650726  0.02751264  0.32210067     0.16300
O542        O  0.61913047  0.08381545  0.30082354    -0.60700
H543        H  0.59597922  0.08270046  0.28521469     0.43300
H544        H  0.49286480  0.07855510  0.39992934     0.43300
C545        C  0.59136691  0.18557305  0.34779725    -0.05800
C546        C  0.60193447  0.21687092  0.33281240    -0.33200
C547        C  0.58351471  0.24944909  0.33996575     0.36100
C548        C  0.55396374  0.25311524  0.36353338    -0.06100
C549        C  0.54871397  0.22369560  0.38133363    -0.33100
C550        C  0.56942521  0.19081251  0.37454485     0.36000
H551        H  0.62503706  0.21682541  0.31481507     0.16300
O552        O  0.59486655  0.27762286  0.32325844    -0.60600
H553        H  0.52920942  0.22619788  0.40082968     0.16300
O554        O  0.56996897  0.16494841  0.39475855    -0.60700
H555        H  0.58671805  0.17489243  0.41125287     0.43300
H556        H  0.62387895  0.28727819  0.33162174     0.43300
C557        C  0.61148844  0.15508728  0.30260522    -0.05800
C558        C  0.65311323  0.16126660  0.28719632    -0.33200
C559        C  0.65257930  0.16526679  0.25771130     0.36100
C560        C  0.61015963  0.16335225  0.24277086    -0.06100
C561        C  0.56852743  0.15950735  0.25787379    -0.33100
C562        C  0.56872843  0.15634630  0.28733874     0.36000
H563        H  0.68632191  0.16408489  0.29776807     0.16300
O564        O  0.69402847  0.16934857  0.24357322    -0.60600
H565        H  0.53542546  0.15903916  0.24673739     0.16300
O566        O  0.52668955  0.15483675  0.30119675    -0.60700
H567        H  0.51364347  0.13141500  0.29673733     0.43300
H568        H  0.70231497  0.19440639  0.24594202     0.43300
C569        C  0.00184199  0.36814126  0.10458195    -0.05800
C570        C  0.00512668  0.35811835  0.13344721    -0.33200
C571        C  0.02490994  0.32540065  0.14176360     0.36100
C572        C  0.04382461  0.30260661  0.12120354    -0.06100
C573        C  0.04762453  0.31546800  0.09354614    -0.33100
C574        C  0.02964892  0.34803462  0.08555188     0.36000
H575        H  0.99100803  0.37518998  0.14960698     0.16300
O576        O  0.02384104  0.31560702  0.16964657    -0.60600
H577        H  0.06605932  0.30043693  0.07764772     0.16300
O578        O  0.04095753  0.35998669  0.05904338    -0.60700
H579        H  0.07505366  0.36453599  0.05947330     0.43300
H580        H  0.04942096  0.32893512  0.17878156     0.43300
C581        C  0.00316182  0.43390882  0.10335268    -0.05800
C582        C  0.04571623  0.44099781  0.08913324    -0.33200
C583        C  0.06720355  0.47414569  0.09076220     0.36100
C584        C  0.04790289  0.50043884  0.10818926    -0.06100
C585        C  0.01113151  0.49107697  0.12608260    -0.33100
C586        C  0.98931754  0.45857707  0.12408890     0.36000
H587        H  0.05968473  0.42232048  0.07426619     0.16300
O588        O  0.10521545  0.48091143  0.07403413    -0.60600
H589        H  0.99662754  0.00963784  0.14084319     0.16300
O590        O  0.95539184  0.45131788  0.14336776    -0.60700
H591        H  0.93048504  0.46888751  0.13965560     0.43300
H592        H  0.13274540  0.47526616  0.08597146     0.43300
C593        C  0.96441978  0.40009905  0.06193307    -0.05800
C594        C  0.94594948  0.36905843  0.04977830    -0.33200
C595        C  0.94315998  0.36542470  0.52024740     0.36100
C596        C  0.95701305  0.39284608  0.50217422    -0.06100
C597        C  0.96856882  0.42523105  0.51439572    -0.33100
C598        C  0.97079326  0.42910132  0.04337099     0.36000
H599        H  0.93631793  0.34731886  0.06332446     0.16300
O600        O  0.92877896  0.33387248  0.50954380    -0.60600
H601        H  0.97516968  0.44789096  0.50117015     0.16300
O602        O  0.97504209  0.46279660  0.05332267    -0.60700
H603        H  0.00270734  0.47307829  0.04381587     0.43300
H604        H  0.95736644  0.31913122  0.50882270     0.43300
C605        C  0.97248198  0.40136510  0.59489445    -0.02800
C606        C  0.60931085  0.14880151  0.83425211    -0.02800
Zr607      Zr  0.61755281  0.09398300  0.57762947     2.17500
O608        O  0.56150638  0.06799071  0.54502291    -0.51600
O609        O  0.67596924  0.04703461  0.57580521    -0.74800
O610        O  0.64247031  0.10285307  0.52838858    -0.81600
O611        O  0.54501682  0.05966339  0.63828904    -0.83400
O612        O  0.68819818  0.15155085  0.52793256    -0.79000
O613        O  0.57357908  0.04334319  0.59542673    -0.90600
O614        O  0.73037453  0.05918631  0.60952114    -0.76600
O615        O  0.69303957  0.11838432  0.58562713    -0.86100
O616        O  0.63477654  0.08672915  0.62662500    -0.85800
O617        O  0.61007773  0.15530953  0.56530952    -0.72500
O618        O  0.55674415  0.12531596  0.60269598    -0.84700
Zr619      Zr  0.64559259  0.20285955  0.64782976     2.26400
Zr620      Zr  0.68626344  0.17905508  0.57379407     2.06300
Zr621      Zr  0.57500654  0.11740447  0.65158041     2.10000
Zr622      Zr  0.70926527  0.11139488  0.63468448     1.78800
O623        O  0.49166524  0.12602667  0.65906039    -0.93500
O624        O  0.79171925  0.11954378  0.62380542    -0.41300
O625        O  0.65047695  0.14197484  0.66032948    -0.77900
O626        O  0.70595175  0.17183685  0.62265756    -0.96600
O627        O  0.62816111  0.21144139  0.59910227    -0.89900
O628        O  0.56927001  0.17893826  0.64073083    -0.92700
C629        C  0.71357928  0.04029689  0.58970633     1.01000
C630        C  0.55010729  0.03733052  0.61812751     1.13900
C631        C  0.66848460  0.12550534  0.51574066     1.04700
O632        O  0.76755189  0.17078541  0.56013705    -0.94900
O633        O  0.73097428  0.22930339  0.58881661    -0.90600
O634        O  0.71177122  0.23986417  0.63450285    -0.83800
C635        C  0.73628873  0.24574788  0.61218997     1.11400
O636        O  0.49255156  0.16692395  0.55917693    -0.96900
Zr637      Zr  0.55269591  0.18725967  0.59179612     1.88900
O638        O  0.59167018  0.25279749  0.64633465    -0.73500
O639        O  0.67212879  0.22465901  0.53863912    -0.52800
O640        O  0.55415750  0.22254086  0.54878172    -0.97500
O641        O  0.47292281  0.19231556  0.60942747    -0.54700
O642        O  0.54500961  0.24797754  0.60778955    -0.74000
C643        C  0.56075833  0.26501602  0.62915351     0.98300
O644        O  0.67942558  0.24237262  0.68288356    -0.62900
O645        O  0.57993544  0.07639717  0.69114672    -0.57700
O646        O  0.63461123  0.18491566  0.69712178    -0.94300
O647        O  0.58101091  0.14119547  0.69886358    -0.92800
O648        O  0.70597282  0.06544952  0.67046399    -0.93100
O649        O  0.75494430  0.12528068  0.67665130    -0.91900
C650        C  0.60799379  0.16364878  0.71064246     1.17200
H651        H  0.63588535  0.06227847  0.63194995     0.33100
H652        H  0.73684030  0.18045281  0.62678310     0.43900
H653        H  0.54656937  0.19041939  0.65263902     0.37500
H654        H  0.60157475  0.15787430  0.54566395     0.34000
H655        H  0.80758828  0.09889983  0.63222202     0.25700
H656        H  0.70017112  0.22420135  0.52640043     0.31700
H657        H  0.53048230  0.24115101  0.55180970     0.37600
H658        H  0.73426061  0.05100548  0.66721676     0.32000
H659        H  0.54829340  0.06626003  0.69306621     0.30900
H660        H  0.48942714  0.14681080  0.67149983     0.32600
H661        H  0.47497642  0.20694937  0.62663205     0.31600
H662        H  0.74255109  0.14820133  0.68305893     0.35600
H663        H  0.65387809  0.24882613  0.69600473     0.28300
H664        H  0.58003585  0.05190695  0.53300914     0.32500
H665        H  0.47440151  0.18803218  0.55370406     0.35400
H666        H  0.59974664  0.05682081  0.68434689     0.28000
H667        H  0.70146978  0.22802520  0.69423552     0.40900
H668        H  0.78551727  0.17307095  0.57793008     0.30900
H669        H  0.79393848  0.11569638  0.60316376     0.38500
H670        H  0.46510831  0.16859428  0.61646339     0.30400
H671        H  0.64673499  0.21542867  0.52655834     0.30500
H672        H  0.55190896  0.08733889  0.53226203     0.30700
C673        C  0.73758810  0.11638119  0.85250400     0.86200
C674        C  0.72494778  0.10858313  0.88317785    -0.54100
C675        C  0.69466517  0.13174782  0.89495332     0.09100
C676        C  0.67878408  0.16122551  0.87453966     0.20100
C677        C  0.69053138  0.11850242  0.83707099    -0.54800
C678        C  0.65859175  0.14219321  0.84786263     0.09200
C679        C  0.75451082  0.15424905  0.85200266    -0.54300
C680        C  0.72465515  0.17756666  0.86402161     0.09800
H681        H  0.74062447  0.08721675  0.89517175     0.14300
H682        H  0.65622918  0.18091377  0.88484728     0.00000
H683        H  0.68588924  0.10543521  0.81734674     0.14600
H684        H  0.78797464  0.16216504  0.84333458     0.14400
Zr685      Zr  0.95902102  0.44871316  0.83314891     2.17500
O686        O  0.01585270  0.47242880  0.79989925    -0.51600
O687        O  0.90149526  0.49547288  0.82874100    -0.74800
O688        O  0.93588237  0.43494055  0.78405806    -0.81600
O689        O  0.02646841  0.48807421  0.89425995    -0.83400
O690        O  0.90124689  0.38128934  0.78389218    -0.79000
O691        O  0.00267130  0.50046742  0.84941572    -0.90600
O692        O  0.84145502  0.48222735  0.85838567    -0.76600
O693        O  0.88438432  0.42186040  0.83917586    -0.86100
O694        O  0.93507282  0.45908373  0.88065801    -0.85800
O695        O  0.97157475  0.38713883  0.82484395    -0.72500
O696        O  0.01846164  0.42282346  0.86290404    -0.84700
Zr697      Zr  0.92800320  0.34367213  0.90833119     2.26400
Zr698      Zr  0.89662811  0.36054022  0.83167865     2.06300
Zr699      Zr  0.99270446  0.43260536  0.91007176     2.10000
Zr700      Zr  0.86134900  0.43224914  0.88675482     1.78800
O701        O  0.07331789  0.42423241  0.92523066    -0.93500
O702        O  0.78182123  0.41987972  0.87141685    -0.41300
O703        O  0.91799226  0.40553979  0.91698541    -0.77900
O704        O  0.86967939  0.37124044  0.87880274    -0.96600
O705        O  0.95355506  0.33346617  0.86117288    -0.89900
O706        O  0.00335022  0.37072639  0.90334192    -0.92700
C707        C  0.86147202  0.50148496  0.83992652     1.01000
C708        C  0.02423032  0.50831857  0.87250220     1.13900
C709        C  0.91678680  0.40860574  0.77138334     1.04700
O710        O  0.81973274  0.36142914  0.80959820    -0.94900
O711        O  0.84958129  0.31212774  0.84774096    -0.90600
O712        O  0.86230375  0.30523961  0.89476717    -0.83800
C713        C  0.84090407  0.29746490  0.87156503     1.11400
O714        O  0.09461104  0.38458718  0.83058774    -0.96900
Zr715      Zr  0.02756233  0.36092178  0.85586867     1.88900
O716        O  0.97848780  0.29137439  0.90567027    -0.73500
O717        O  0.92340498  0.30994886  0.80482446    -0.52800
O718        O  0.04362666  0.32997344  0.81187041    -0.97500
O719        O  0.10008060  0.35181030  0.88218584    -0.54700
O720        O  0.02737406  0.29995725  0.86879098    -0.74000
C721        C  0.00935662  0.28048824  0.88794339     0.98300
O722        O  0.89264035  0.30598059  0.94416711    -0.62900
O723        O  0.98020140  0.47927073  0.94446912    -0.57700
O724        O  0.93975467  0.36259734  0.95787588    -0.94300
O725        O  0.97946289  0.41395642  0.95780285    -0.92800
O726        O  0.85546756  0.48067408  0.92007146    -0.93100
O727        O  0.80780959  0.42009574  0.92550861    -0.91900
C728        C  0.95881883  0.38879973  0.97060918     1.17200
H729        H  0.93256008  0.48388653  0.88448886     0.33100
H730        H  0.83853301  0.36259194  0.88188339     0.43900
H731        H  0.02502723  0.36117572  0.91698723     0.37500
H732        H  0.98279505  0.38339018  0.80585032     0.34000
H733        H  0.76413343  0.44167928  0.87539333     0.25700
H734        H  0.89810788  0.30554187  0.79099714     0.31700
H735        H  0.06862127  0.31296105  0.81669242     0.37600
H736        H  0.82480840  0.49169769  0.91598616     0.32000
H737        H  0.01164867  0.48864203  0.94874557     0.30900
H738        H  0.09175698  0.42525966  0.90756278     0.32600
H739        H  0.11992115  0.33752084  0.86947223     0.31600
H740        H  0.82375264  0.40178937  0.93687360     0.35600
H741        H  0.91829867  0.29840039  0.95686620     0.28300
H742        H  0.99768603  0.48812406  0.78728646     0.32500
H743        H  0.08091795  0.39782219  0.81454214     0.35400
H744        H  0.96407328  0.49832290  0.93402968     0.28000
H745        H  0.87219020  0.32119411  0.95578668     0.40900
H746        H  0.81197836  0.38661090  0.80742497     0.30900
H747        H  0.78367062  0.41893115  0.85054842     0.38500
H748        H  0.09220661  0.33554000  0.89777852     0.30400
H749        H  0.94971336  0.31879716  0.79330898     0.30500
H750        H  0.02515336  0.45240153  0.78783022     0.30700
C751        C  0.84076560  0.42791259  0.60685682     0.86200
C752        C  0.84607215  0.43067565  0.63896417    -0.54100
C753        C  0.87612698  0.40700335  0.65093172     0.09100
C754        C  0.89639262  0.38065733  0.62898556     0.20100
C755        C  0.89120612  0.42922890  0.59577777    -0.54800
C756        C  0.92125200  0.40396579  0.60647394     0.09200
C757        C  0.82574956  0.39031409  0.60136728    -0.54300
C758        C  0.85343859  0.36574833  0.61367546     0.09800
H759        H  0.82674061  0.45000586  0.65098546     0.14300
H760        H  0.91728186  0.35933588  0.63822088     0.00000
H761        H  0.90273417  0.44800113  0.58029653     0.14600
H762        H  0.79376358  0.38354439  0.59027922     0.14400
C763        C  0.46971199  0.40169808  0.65483935    -0.02800
C764        C  0.10454936  0.14527927  0.90287189    -0.02800
Zr765      Zr  0.11989776  0.20247833  0.66586970     2.17500
O766        O  0.06557633  0.22509254  0.70111471    -0.51600
O767        O  0.17955186  0.24763845  0.66753938    -0.74800
O768        O  0.14585328  0.18814359  0.71427919    -0.81600
O769        O  0.06047802  0.24548586  0.60408896    -0.83400
O770        O  0.18058969  0.13413520  0.71409657    -0.79000
O771        O  0.07759940  0.25606147  0.65019964    -0.90600
O772        O  0.24360681  0.21766509  0.65436701    -0.76600
O773        O  0.19303340  0.17267121  0.66063783    -0.86100
O774        O  0.14588043  0.21303115  0.61859460    -0.85800
O775        O  0.10575039  0.14082639  0.67330598    -0.72500
O776        O  0.06006846  0.17870230  0.63556442    -0.84700
Zr777      Zr  0.14775919  0.09798398  0.59023279     2.26400
Zr778      Zr  0.17944429  0.11147166  0.66671012     2.06300
Zr779      Zr  0.08771103  0.18822102  0.58867083     2.10000
Zr780      Zr  0.21883784  0.18395959  0.61396528     1.78800
O781        O  0.00516794  0.18337010  0.57670252    -0.93500
O782        O  0.29947002  0.16708681  0.62354609    -0.41300
O783        O  0.16165593  0.15955456  0.58275428    -0.77900
O784        O  0.20765468  0.12270942  0.61988928    -0.96600
O785        O  0.12097121  0.08707480  0.63694849    -0.89900
O786        O  0.07390193  0.12690559  0.59502645    -0.92700
C787        C  0.22360135  0.24547860  0.66307794     1.01000
C788        C  0.06086356  0.26549242  0.62593587     1.13900
C789        C  0.16634907  0.16197165  0.72649148     1.04700
O790        O  0.25830245  0.10863366  0.68596698    -0.94900
O791        O  0.22275688  0.06084648  0.64985677    -0.90600
O792        O  0.20981924  0.05586870  0.60276513    -0.83800
C793        C  0.23029828  0.04631042  0.62580855     1.11400
O794        O  0.98297810  0.13955313  0.66966393    -0.96900
Zr795      Zr  0.04833326  0.11690810  0.64213284     1.88900
O796        O  0.09820639  0.04587505  0.59382719    -0.73500
O797        O  0.15071247  0.06349826  0.69588199    -0.52800
O798        O  0.03162759  0.08468900  0.68542958    -0.97500
O799        O  0.97627459  0.11486828  0.61437710    -0.54700
O800        O  0.04400609  0.05637293  0.62759728    -0.74000
C801        C  0.06437462  0.03610067  0.60982354     0.98300
O802        O  0.18045542  0.06911938  0.54872942    -0.62900
O803        O  0.10231518  0.23183941  0.55200302    -0.57700
O804        O  0.12839178  0.11375641  0.54127128    -0.94300
O805        O  0.09497194  0.16795946  0.54076241    -0.92800
O806        O  0.22971367  0.24011470  0.59020203    -0.93100
O807        O  0.26829975  0.17717897  0.57253845    -0.91900
C808        C  0.11063935  0.14047841  0.52841860     1.17200
H809        H  0.14946603  0.23780999  0.61491920     0.33100
H810        H  0.23809562  0.11255609  0.61668323     0.43900
H811        H  0.05209104  0.11819882  0.58116843     0.37500
H812        H  0.09484066  0.13714381  0.69239339     0.34000
H813        H  0.31618047  0.18950247  0.62643247     0.25700
H814        H  0.14880807  0.04313746  0.68297382     0.31700
H815        H  0.00457926  0.06967073  0.68069476     0.37600
H816        H  0.25722595  0.25063080  0.59959809     0.32000
H817        H  0.07198620  0.24376253  0.54879999     0.30900
H818        H  0.99615814  0.20702546  0.56992993     0.32600
H819        H  0.95283103  0.10401172  0.62699556     0.31600
H820        H  0.26149347  0.15322019  0.56564923     0.35600
H821        H  0.21432475  0.07430792  0.54919484     0.28300
H822        H  0.08442081  0.24076976  0.71324579     0.32500
H823        H  0.99758101  0.15483614  0.68406302     0.35400
H824        H  0.12238541  0.24970149  0.56106413     0.28000
H825        H  0.17811004  0.04363521  0.55252010     0.40900
H826        H  0.26755691  0.13340453  0.68863539     0.30900
H827        H  0.29861688  0.15614701  0.64252531     0.38500
H828        H  0.98167785  0.09686837  0.59967666     0.30400
H829        H  0.17708198  0.05783218  0.70868872     0.30500
H830        H  0.05783205  0.20479210  0.71331942     0.30700
C831        C  0.23644842  0.17596931  0.89060393     0.86200
C832        C  0.22938754  0.17935197  0.85874977    -0.54100
C833        C  0.20130318  0.15465743  0.84689305     0.09100
C834        C  0.18174922  0.12831438  0.86879459     0.20100
C835        C  0.18652969  0.17587693  0.90286359    -0.54800
C836        C  0.15663729  0.15054852  0.89230234     0.09200
C837        C  0.25303850  0.13861030  0.89555364    -0.54300
C838        C  0.22556194  0.11370890  0.88369266     0.09800
H839        H  0.24521712  0.20037835  0.84659350     0.14300
H840        H  0.16079712  0.10750330  0.85873215     0.00000
H841        H  0.17722428  0.19365627  0.91911881     0.14600
H842        H  0.28537791  0.13229773  0.90648184     0.17600
Zr843      Zr  0.46261427  0.34182734  0.91093216     2.17500
O844        O  0.52012303  0.31548323  0.94261974    -0.51600
O845        O  0.40394301  0.29503485  0.91292860    -0.74800
O846        O  0.43934145  0.35045830  0.96084469    -0.81600
O847        O  0.53123037  0.31010984  0.84803931    -0.83400
O848        O  0.40125518  0.40288934  0.96391099    -0.79000
O849        O  0.50882878  0.29257587  0.89181046    -0.90600
O850        O  0.34310645  0.31235609  0.88516371    -0.76600
O851        O  0.38734423  0.36823923  0.90577988    -0.86100
O852        O  0.44086834  0.33598788  0.86244975    -0.85800
O853        O  0.47342470  0.40277487  0.92312162    -0.72500
O854        O  0.52140832  0.37227864  0.88357723    -0.84700
Zr855      Zr  0.43126390  0.45297217  0.84248918     2.26400
Zr856      Zr  0.39756487  0.42869477  0.91744604     2.06300
Zr857      Zr  0.49798171  0.36662870  0.83532111     2.10000
Zr858      Zr  0.36631885  0.36203354  0.85731864     1.78800
O859        O  0.57942359  0.37294111  0.82150437    -0.93500
O860        O  0.28508241  0.37449604  0.86897637    -0.41300
O861        O  0.42245582  0.39254495  0.82915443    -0.77900
O862        O  0.37286381  0.42208961  0.86936149    -0.96600
O863        O  0.45444742  0.46004605  0.89053548    -0.89900
O864        O  0.50723603  0.42744518  0.84669200    -0.92700
C865        C  0.36274848  0.29113583  0.90244396     1.01000
C866        C  0.53025101  0.28745919  0.86817691     1.13900
C867        C  0.41818252  0.37487140  0.97480274     1.04700
O868        O  0.31918937  0.42407895  0.93709142    -0.94900
O869        O  0.34966570  0.47751206  0.90274113    -0.90600
O870        O  0.36576857  0.98956589  0.85719984    -0.83800
C871        C  0.34251407  0.99413856  0.88017109     1.11400
O872        O  0.59035053  0.41145398  0.92648199    -0.96900
Zr873      Zr  0.52955165  0.43349343  0.89488041     1.88900
O874        O  0.48171503  0.00320050  0.84328593    -0.73500
O875        O  0.41677706  0.47630319  0.94964158    -0.52800
O876        O  0.53587428  0.46908240  0.93742507    -0.97500
O877        O  0.60731650  0.43195894  0.87383439    -0.54700
O878        O  0.54086735  0.49312220  0.87750394    -0.74000
C879        C  0.51869936  0.01240737  0.85669840     0.98300
O880        O  0.39479810  0.49463516  0.80993384    -0.62900
O881        O  0.48023403  0.32457520  0.79808576    -0.57700
O882        O  0.44371476  0.43916090  0.79237117    -0.94300
O883        O  0.49425987  0.39326828  0.78893585    -0.92800
O884        O  0.36210347  0.31337358  0.82413309    -0.93100
O885        O  0.31826657  0.37521612  0.81612359    -0.91900
C886        C  0.46929284  0.41779911  0.77809264     1.17200
H887        H  0.43922448  0.31158962  0.85713236     0.33100
H888        H  0.34170527  0.43081418  0.86617799     0.43900
H889        H  0.52905429  0.43865111  0.83406847     0.37500
H890        H  0.48391367  0.40479484  0.94244441     0.34000
H891        H  0.26849480  0.35212249  0.86567158     0.25700
H892        H  0.38808209  0.47977244  0.96098521     0.31700
H893        H  0.51348564  0.48860125  0.93450655     0.37600
H894        H  0.33037872  0.30358614  0.82670627     0.32000
H895        H  0.51084097  0.31477152  0.79235699     0.30900
H896        H  0.58372558  0.35586644  0.80597816     0.32600
H897        H  0.60498140  0.44590879  0.85622530     0.31600
H898        H  0.32112704  0.40090210  0.81358352     0.35600
H899        H  0.42023201  0.50373272  0.79782480     0.28300
H900        H  0.50196245  0.30179191  0.95657528     0.32500
H901        H  0.61220526  0.43122627  0.92930639     0.35400
H902        H  0.46413276  0.30490453  0.80763472     0.28000
H903        H  0.37468271  0.48065658  0.79719966     0.40900
H904        H  0.31429640  0.39866476  0.94016278     0.30900
H905        H  0.28490741  0.37737896  0.88976372     0.38500
H906        H  0.61146836  0.40746588  0.86739303     0.30400
H907        H  0.43966052  0.46615843  0.96309909     0.30500
H908        H  0.53313946  0.33540229  0.95344504     0.30700
C909        C  0.34684397  0.36041943  0.63944146     0.86200
C910        C  0.35876404  0.35472693  0.60843264    -0.54100
C911        C  0.38388728  0.38081007  0.59583299     0.09100
C912        C  0.39563618  0.41102623  0.61691399     0.20100
C913        C  0.39470620  0.36547979  0.65348156    -0.54800
C914        C  0.42064233  0.39279124  0.64258744     0.09200
C915        C  0.32387779  0.39641815  0.64136501    -0.54300
C916        C  0.34808879  0.42272054  0.62914806     0.09800
H917        H  0.34864103  0.33074504  0.59782196     0.14300
H918        H  0.41447208  0.43323966  0.60735029     0.00000
H919        H  0.40695712  0.34999296  0.67116333     0.14600
H920        H  0.28997726  0.40073787  0.65111831     0.14400
C921        C  0.41586101  0.37293963  0.50590397    -0.05800
C922        C  0.44348765  0.39400720  0.52351231    -0.33200
C923        C  0.43435662  0.39676057  0.55266008     0.36100
C924        C  0.39608465  0.37877439  0.56475473    -0.06100
C925        C  0.36864015  0.35762579  0.54656363    -0.33100
C926        C  0.37891095  0.35406244  0.51777800     0.36000
H927        H  0.47187259  0.40903280  0.51447208     0.16300
O928        O  0.46372984  0.41662020  0.56890886    -0.60600
H929        H  0.33782231  0.34433588  0.55415466     0.16300
O930        O  0.34127379  0.33998012  0.00045199    -0.60700
H931        H  0.36510241  0.31005637  0.50147494     0.43300
H932        H  0.45683657  0.44133204  0.56376462     0.43300
C933        C  0.27225910  0.20311106  0.90065148    -0.05800
C934        C  0.25895353  0.23348563  0.91557891    -0.33200
C935        C  0.29008161  0.26154626  0.91887273     0.36100
C936        C  0.33595111  0.25914334  0.90839457    -0.06100
C937        C  0.35067064  0.22804123  0.89566247    -0.33100
C938        C  0.31932411  0.20052787  0.89122208     0.36000
H939        H  0.22356706  0.23736375  0.92272674     0.16300
O940        O  0.27455667  0.29218157  0.93085746    -0.60600
H941        H  0.38526054  0.22641311  0.88642891     0.16300
O942        O  0.33375545  0.17278677  0.87491171    -0.60700
H943        H  0.35582065  0.15926282  0.88693419     0.43300
H944        H  0.25525945  0.30377574  0.91609656     0.43300
C945        C  0.24204088  0.07722488  0.88302960    -0.05800
C946        C  0.25274816  0.06197576  0.85695226    -0.33200
C947        C  0.28401345  0.03371027  0.85557354     0.36100
C948        C  0.30466581  0.02057691  0.88060100    -0.06100
C949        C  0.28923859  0.03342134  0.90680032    -0.33100
C950        C  0.25823362  0.06156454  0.90812194     0.36000
H951        H  0.23998046  0.07373131  0.83753416     0.16300
O952        O  0.29447076  0.01945515  0.82974525    -0.60600
H953        H  0.30312871  0.02301363  0.92642231     0.16300
O954        O  0.24555164  0.07486830  0.93398103    -0.60700
H955        H  0.27407667  0.08592155  0.94181765     0.43300
H956        H  0.31666250  0.03606168  0.82086461     0.43300
C957        C  0.19161700  0.15485851  0.81576006    -0.05800
C958        C  0.22720155  0.16554682  0.79704991    -0.33200
C959        C  0.21875343  0.16924219  0.76807723     0.36100
C960        C  0.17399981  0.16280375  0.75718458    -0.06100
C961        C  0.13860530  0.15134083  0.77540251    -0.33100
C962        C  0.14718546  0.14689411  0.80443389     0.36000
H963        H  0.26211055  0.17066915  0.80483853     0.16300
O964        O  0.25494426  0.17789944  0.75041753    -0.60600
H965        H  0.10444781  0.14500337  0.76696471     0.16300
O966        O  0.11133898  0.13609710  0.82151368    -0.60700
H967        H  0.10793197  0.11063341  0.81783974     0.43300
H968        H  0.25049730  0.20313462  0.74603760     0.43300
C969        C  0.25181131  0.27732255  0.66368128    -0.05800
C970        C  0.23677057  0.30494628  0.64659598    -0.33200
C971        C  0.26755327  0.33119904  0.63859670     0.36100
C972        C  0.31363973  0.33208690  0.64976608    -0.06100
C973        C  0.32778917  0.30512761  0.66828823    -0.33100
C974        C  0.29747810  0.27747300  0.67472963     0.36000
H975        H  0.20232840  0.30435965  0.63701347     0.16300
O976        O  0.25264825  0.35526582  0.61887912    -0.60600
H977        H  0.36292799  0.30392613  0.67652852     0.16300
O978        O  0.31359105  0.24978781  0.69054714    -0.60700
H979        H  0.30245013  0.25442653  0.71002581     0.43300
H980        H  0.25621802  0.34348865  0.60032391     0.43300
C981        C  0.26543815  0.01718783  0.62509100    -0.05800
C982        C  0.28435310  0.00483239  0.65075911    -0.33200
C983        C  0.31234465  0.47455777  0.65289960     0.36100
C984        C  0.32658211  0.45801849  0.62776278    -0.06100
C985        C  0.30955804  0.47056113  0.60185798    -0.33100
C986        C  0.27741696  0.49850680  0.60087709     0.36000
H987        H  0.27449470  0.01669481  0.67067172     0.16300
O988        O  0.32779279  0.46250943  0.67865164    -0.60600
H989        H  0.31892624  0.45722591  0.58245551     0.16300
O990        O  0.25987859  0.50866474  0.57515754    -0.60700
H991        H  0.28129952  0.52725071  0.56839913     0.43300
H992        H  0.30349106  0.95018739  0.68518277     0.43300
C993        C  0.10384972  0.14454545  0.93650137    -0.05800
C994        C  0.09159981  0.11396934  0.95213493    -0.33200
C995        C  0.09828015  0.11086356  0.48141340     0.36100
C996        C  0.10902152  0.14076233  0.49713385    -0.06100
C997        C  0.11478010  0.17256321  0.48286731    -0.33100
C998        C  0.11106051  0.17547149  0.95312983     0.36000
H999        H  0.07671720  0.09120078  0.94235516     0.16300
O1000       O  0.08805248  0.07985019  0.49474936    -0.60600
H1001       H  0.11990737  0.19644161  0.49485918     0.16300
O1002       O  0.10928061  0.20839676  0.94108057    -0.60700
H1003       H  0.13315035  0.22309811  0.95058779     0.43300
H1004       H  0.11677895  0.06539481  0.49304619     0.43300
C1005       C  0.46836871  0.41032383  0.68717523    -0.05800
C1006       C  0.42615898  0.41237946  0.70274425    -0.33200
C1007       C  0.42607652  0.41655319  0.73214113     0.36100
C1008       C  0.46835499  0.41989681  0.74691648    -0.06100
C1009       C  0.51023582  0.42100692  0.73169771    -0.33100
C1010       C  0.51054608  0.41704889  0.70218275     0.36000
H1011       H  0.39255262  0.41064310  0.69254870     0.16300
O1012       O  0.38438677  0.41562329  0.74639583    -0.60600
H1013       H  0.54308604  0.42399540  0.74283860     0.16300
O1014       O  0.55257148  0.41807003  0.68826505    -0.60700
H1015       H  0.56956140  0.89770982  0.69321753     0.43300
H1016       H  0.37941668  0.39054625  0.75110940     0.43300
C1017       C  0.04704605  0.04311230  0.87400323    -0.05800
C1018       C  0.08989582  0.04503185  0.88808509    -0.33200
C1019       C  0.10907975  0.07727156  0.89629175     0.36100
C1020       C  0.08557325  0.10957830  0.89052775    -0.06100
C1021       C  0.04411317  0.10736082  0.87409861    -0.33100
C1022       C  0.02499212  0.07472681  0.86600428     0.36000
H1023       H  0.10916174  0.52075715  0.89440930     0.16300
O1024       O  0.14978499  0.07700765  0.91170012    -0.60600
H1025       H  0.02504648  0.13070609  0.86806389     0.16300
O1026       O  0.98285696  0.07406772  0.85218295    -0.60700
H1027       H  0.99020732  0.07947940  0.83217010     0.43300
H1028       H  0.14540106  0.06027419  0.92756160     0.43300
C1029       C  0.02686152  0.24352476  0.88897382    -0.05800
C1030       C  0.06357190  0.23430379  0.87089427    -0.33200
C1031       C  0.08636515  0.20206205  0.87292062     0.36100
C1032       C  0.07283635  0.17696456  0.89348439    -0.06100
C1033       C  0.03063225  0.18410304  0.90827652    -0.33100
C1034       C  0.00855676  0.21721394  0.90672471     0.36000
H1035       H  0.07645563  0.25271848  0.85529919     0.16300
O1036       O  0.12093058  0.19545615  0.85380904    -0.60600
H1037       H  0.01693688  0.16493694  0.92298784     0.16300
O1038       O  0.97035230  0.22373753  0.92337152    -0.60700
H1039       H  0.94295971  0.21945414  0.91100169     0.43300
H1040       H  0.14426092  0.21441894  0.85624953     0.43300
C1041       C  0.91165279  0.40895365  0.74023778    -0.05800
C1042       C  0.90087783  0.44017857  0.72622489    -0.33200
C1043       C  0.88971764  0.44025899  0.69736655     0.36100
C1044       C  0.88955833  0.40840423  0.68166890    -0.06100
C1045       C  0.90315328  0.37749526  0.69562884    -0.33100
C1046       C  0.91413581  0.37755768  0.72447045     0.36000
H1047       H  0.89964971  0.46462241  0.73785757     0.16300
O1048       O  0.88098777  0.47199427  0.68469863    -0.60600
H1049       H  0.90438540  0.35278849  0.68449276     0.16300
O1050       O  0.92692853  0.34655873  0.73710397    -0.60700
H1051       H  0.96137868  0.34531025  0.73509639     0.43300
H1052       H  0.85101981  0.48038125  0.69280531     0.43300
C1053       C  0.77416221  0.09021162  0.84208833    -0.05800
C1054       C  0.76136351  0.06097187  0.82559025    -0.33200
C1055       C  0.79202947  0.03267559  0.82209025     0.36100
C1056       C  0.83665420  0.03363261  0.83432085    -0.06100
C1057       C  0.85103030  0.06349029  0.84885114    -0.33100
C1058       C  0.82021012  0.09133718  0.85327095     0.36000
H1059       H  0.72636729  0.05794320  0.81748818     0.16300
O1060       O  0.77765549  0.50423711  0.80719823    -0.60600
H1061       H  0.88460411  0.06366554  0.85949840     0.16300
O1062       O  0.83379297  0.11761934  0.87126492    -0.60700
H1063       H  0.85793522  0.13103708  0.86084296     0.43300
H1064       H  0.76060967  0.49017472  0.82148924     0.43300
C1065       C  0.80314841  0.27053639  0.87160543    -0.05800
C1066       C  0.78043152  0.26254664  0.84591171    -0.33200
C1067       C  0.74949184  0.23442724  0.84394851     0.36100
C1068       C  0.73977115  0.21408063  0.86791539    -0.06100
C1069       C  0.75809976  0.22404391  0.89416671    -0.33100
C1070       C  0.79000362  0.25183115  0.89615648     0.36000
H1071       H  0.78842783  0.27685046  0.82672946     0.16300
O1072       O  0.73118304  0.22550246  0.81811266    -0.60600
H1073       H  0.75095809  0.20834005  0.91274159     0.16300
O1074       O  0.80945512  0.25933567  0.92193414    -0.60700
H1075       H  0.83468530  0.24172492  0.92456343     0.43300
H1076       H  0.75588562  0.21159513  0.80858029     0.43300
C1077       C  0.52798655  0.00225822  0.62232887    -0.05800
C1078       C  0.48451920  0.00067587  0.63562449    -0.33200
C1079       C  0.46481832  0.46854702  0.64567467     0.36100
C1080       C  0.48878035  0.43622312  0.64102443    -0.06100
C1081       C  0.53190284  0.43816685  0.62644684    -0.33100
C1082       C  0.55148138  0.97045226  0.61658195     0.36000
H1083       H  0.46564550  0.02469136  0.64020858     0.16300
O1084       O  0.42334031  0.46937471  0.66010206    -0.60600
H1085       H  0.55332000  0.41513606  0.62351829     0.16300
O1086       O  0.59483299  0.97086995  0.60432993    -0.60700
H1087       H  0.58667393  0.46702831  0.58378756     0.43300
H1088       H  0.42968897  0.98133878  0.67662876     0.43300
C1089       C  0.54101044  0.30057416  0.63521844    -0.05800
C1090       C  0.53253397  0.31000362  0.66326219    -0.33200
C1091       C  0.51033587  0.34165517  0.67031512     0.36100
C1092       C  0.49907198  0.36726382  0.64907730    -0.06100
C1093       C  0.50775002  0.35703502  0.62076700    -0.33100
C1094       C  0.52849250  0.32458874  0.61380882     0.36000
H1095       H  0.54049387  0.29153058  0.68004980     0.16300
O1096       O  0.49735604  0.34544874  0.69801941    -0.60600
H1097       H  0.49733232  0.37415519  0.60370227     0.16300
O1098       O  0.53594455  0.31662795  0.58591655    -0.60700
H1099       H  0.56943254  0.32174462  0.58253182     0.43300
H1100       H  0.46920139  0.33067150  0.70044318     0.43300
C1101       C  0.68640478  0.13107333  0.92584806    -0.05800
C1102       C  0.64269805  0.12172360  0.93688486    -0.33200
C1103       C  0.63595872  0.11924867  0.96626468     0.36100
C1104       C  0.67349850  0.12569690  0.98488136    -0.06100
C1105       C  0.71733984  0.13422011  0.97364734    -0.33100
C1106       C  0.72408378  0.13648395  0.94447641     0.36000
H1107       H  0.61400131  0.11592685  0.92274248     0.16300
O1108       O  0.59240800  0.11149932  0.97653524    -0.60600
H1109       H  0.74654863  0.13941532  0.98761462     0.16300
O1110       O  0.76757300  0.14468122  0.93429072    -0.60700
H1111       H  0.78596701  0.12264690  0.93562117     0.43300
H1112       H  0.57696016  0.13453005  0.97944880     0.43300
C1113       C  0.73950688  0.00783738  0.58441558    -0.05800
C1114       C  0.72524257  0.97775115  0.59880897    -0.33200
C1115       C  0.75792502  0.45207673  0.60500062     0.36100
C1116       C  0.80497010  0.45455515  0.59580872    -0.06100
C1117       C  0.81671764  0.98213763  0.57864952    -0.33100
C1118       C  0.78502478  0.00951202  0.57354492     0.36000
H1119       H  0.69072642  0.97674844  0.60814936     0.16300
O1120       O  0.74406657  0.42544875  0.62263877    -0.60600
H1121       H  0.85174533  0.98566334  0.57093020     0.16300
O1122       O  0.79978777  0.03900582  0.55953819    -0.60700
H1123       H  0.81436459  0.05396208  0.57421969     0.43300
H1124       H  0.72281261  0.41067748  0.61118178     0.43300
C1125       C  0.77349116  0.27282949  0.61368815    -0.05800
C1126       C  0.78069362  0.29114981  0.63910211    -0.33200
C1127       C  0.81173828  0.31936351  0.64037737     0.36100
C1128       C  0.83617420  0.32964169  0.61601145    -0.06100
C1129       C  0.83215920  0.30983437  0.59131319    -0.33100
C1130       C  0.80129598  0.28155674  0.58994517     0.36000
H1131       H  0.76059115  0.28482088  0.65779870     0.16300
O1132       O  0.81377667  0.33924068  0.66449501    -0.60600
H1133       H  0.85047738  0.31793510  0.57236405     0.16300
O1134       O  0.79757288  0.26358826  0.56495417    -0.60700
H1135       H  0.77707585  0.27824972  0.55277522     0.43300
H1136       H  0.82759117  0.32370279  0.67913675     0.43300
C1137       C  0.58055528  0.11378588  0.83855542    -0.05800
C1138       C  0.53955022  0.11126310  0.85513507    -0.33200
C1139       C  0.51934104  0.07852962  0.86171814     0.36100
C1140       C  0.53826515  0.04742539  0.85055932    -0.06100
C1141       C  0.57434568  0.04983458  0.83111993    -0.33100
C1142       C  0.59326992  0.08228129  0.82375354     0.36000
H1143       H  0.52114613  0.13429556  0.86204428     0.16300
O1144       O  0.48051921  0.07734339  0.87861844    -0.60600
H1145       H  0.58630139  0.02646470  0.82024271     0.16300
O1146       O  0.62006320  0.08291484  0.79977019    -0.60700
H1147       H  0.59765989  0.08206992  0.78375590     0.43300
H1148       H  0.49270202  0.07367182  0.89803541     0.43300
C1149       C  0.58952476  0.18476575  0.84632500    -0.05800
C1150       C  0.59943191  0.21593142  0.83093880    -0.33200
C1151       C  0.58180742  0.24868774  0.83817316     0.36100
C1152       C  0.55415084  0.25295949  0.86251400    -0.06100
C1153       C  0.54904828  0.22359768  0.88040152    -0.33100
C1154       C  0.56831266  0.19031456  0.87325629     0.36000
H1155       H  0.62156103  0.21581387  0.81252027     0.16300
O1156       O  0.59178896  0.27634303  0.82058903    -0.60600
H1157       H  0.53062036  0.22640897  0.90024963     0.16300
O1158       O  0.56825122  0.16429974  0.89333563    -0.60700
H1159       H  0.58393012  0.17424288  0.91021099     0.43300
H1160       H  0.62211552  0.28562646  0.82736463     0.43300
C1161       C  0.61047072  0.15404092  0.80147594    -0.05800
C1162       C  0.65210757  0.16075852  0.78628387    -0.33200
C1163       C  0.65160539  0.16577423  0.75690473     0.36100
C1164       C  0.60927534  0.16376442  0.74185128    -0.06100
C1165       C  0.56762410  0.15933651  0.75678161    -0.33100
C1166       C  0.56772507  0.15535510  0.78613847     0.36000
H1167       H  0.68519281  0.16352676  0.79699972     0.16300
O1168       O  0.69299554  0.17108411  0.74297487    -0.60600
H1169       H  0.53457418  0.15890835  0.74557870     0.16300
O1170       O  0.52558160  0.15321288  0.79983225    -0.60700
H1171       H  0.51273125  0.12989982  0.79481960     0.43300
H1172       H  0.70146744  0.19580812  0.74689526     0.43300
C1173       C  0.00083512  0.36777861  0.60442743    -0.05800
C1174       C  0.00362946  0.35731667  0.63318847    -0.33200
C1175       C  0.02304231  0.32444071  0.64132188     0.36100
C1176       C  0.04297559  0.30212142  0.62079189    -0.06100
C1177       C  0.04718505  0.31530456  0.59325814    -0.33100
C1178       C  0.02870487  0.34775348  0.58528766     0.36000
H1179       H  0.98935370  0.37418670  0.64942934     0.16300
O1180       O  0.02040530  0.31395756  0.66899368    -0.60600
H1181       H  0.06605714  0.30051803  0.57740130     0.16300
O1182       O  0.03952988  0.35960339  0.55866591    -0.60700
H1183       H  0.07355449  0.36443494  0.55889071     0.43300
H1184       H  0.04686242  0.32573585  0.67858446     0.43300
C1185       C  0.00232611  0.43371083  0.60411761    -0.05800
C1186       C  0.04577711  0.44013360  0.59074318    -0.33200
C1187       C  0.06800736  0.47294871  0.59265316     0.36100
C1188       C  0.04870047  0.49956064  0.60971043    -0.06100
C1189       C  0.01063225  0.49091540  0.62686354    -0.33100
C1190       C  0.98769889  0.45889021  0.62436423     0.36000
H1191       H  0.06005742  0.42115706  0.57623660     0.16300
O1192       O  0.10676565  0.47913719  0.57642562    -0.60600
H1193       H  0.99736283  0.00746592  0.64217558     0.16300
O1194       O  0.95178648  0.45274143  0.64259732    -0.60700
H1195       H  0.92806912  0.47104537  0.63828839     0.43300
H1196       H  0.13370678  0.47605600  0.58940554     0.43300
C1197       C  0.96422370  0.40059462  0.56205877    -0.05800
C1198       C  0.94505142  0.36992731  0.54972187    -0.33200
C1199       C  0.94372542  0.36439759  0.02028118     0.36100
C1200       C  0.95680085  0.39190531  0.00205836    -0.06100
C1201       C  0.96777082  0.42446012  0.01415377    -0.33100
C1202       C  0.97160688  0.42962357  0.54366247     0.36000
H1203       H  0.93480009  0.34822799  0.56313853     0.16300
O1204       O  0.92951967  0.33273705  0.00969563    -0.60600
H1205       H  0.97368890  0.44716145  0.00084505     0.16300
O1206       O  0.97685158  0.46314258  0.55380715    -0.60700
H1207       H  0.00516465  0.47285079  0.54461426     0.43300
H1208       H  0.95779870  0.31764110  0.01002641     0.43300
C1209       C  0.97297976  0.90107774  0.09465719    -0.02800
C1210       C  0.61077019  0.64854261  0.33485878    -0.02800
Zr1211     Zr  0.61618950  0.59410283  0.07775098     2.17500
O1212       O  0.56083339  0.56738592  0.04508116    -0.51600
O1213       O  0.67605315  0.54786441  0.07574504    -0.74800
O1214       O  0.63943052  0.60410938  0.02833549    -0.81600
O1215       O  0.54485025  0.55905653  0.13820865    -0.83400
O1216       O  0.68432835  0.65322731  0.02795647    -0.79000
O1217       O  0.57284801  0.54303864  0.09515448    -0.90600
O1218       O  0.72993959  0.55988159  0.10977915    -0.76600
O1219       O  0.69130246  0.61906269  0.08563968    -0.86100
O1220       O  0.63343988  0.58682594  0.12678169    -0.85800
O1221       O  0.60750502  0.65550927  0.06598408    -0.72500
O1222       O  0.55474957  0.62479618  0.10292963    -0.84700
Zr1223     Zr  0.64324359  0.70293472  0.14839561     2.26400
Zr1224     Zr  0.68336755  0.67982208  0.07422156     2.06300
Zr1225     Zr  0.57325483  0.61707192  0.15175932     2.10000
Zr1226     Zr  0.70778089  0.61193024  0.13466170     1.78800
O1227       O  0.48972424  0.62572372  0.15849993    -0.93500
O1228       O  0.78954052  0.62134761  0.12267547    -0.41300
O1229       O  0.64867635  0.64188920  0.16063652    -0.77900
O1230       O  0.70352970  0.67233707  0.12296159    -0.96600
O1231       O  0.62499118  0.71152727  0.09980772    -0.89900
O1232       O  0.56695362  0.67866953  0.14149333    -0.92700
C1233       C  0.71356413  0.54109308  0.08980420     1.01000
C1234       C  0.54974284  0.53687229  0.11794965     1.13900
C1235       C  0.66475144  0.62717641  0.01566704     1.04700
O1236       O  0.76482536  0.67284625  0.06057622    -0.94900
O1237       O  0.72877514  0.72966602  0.08929676    -0.90600
O1238       O  0.70999760  0.73984752  0.13512182    -0.83800
C1239       C  0.73442818  0.74588458  0.11274386     1.11400
O1240       O  0.49000682  0.66649120  0.05974210    -0.96900
Zr1241     Zr  0.54974124  0.68681578  0.09262500     1.88900
O1242       O  0.58979447  0.75297882  0.14622872    -0.73500
O1243       O  0.66792194  0.72633887  0.04008935    -0.52800
O1244       O  0.54822985  0.72167097  0.04939145    -0.97500
O1245       O  0.47075561  0.69061462  0.11180200    -0.54700
O1246       O  0.54232220  0.74767433  0.10808246    -0.74000
C1247       C  0.55871388  0.76501318  0.12910206     0.98300
O1248       O  0.67532860  0.74354153  0.18322741    -0.62900
O1249       O  0.57375789  0.57685211  0.19189992    -0.57700
O1250       O  0.63175323  0.68475406  0.19765292    -0.94300
O1251       O  0.58029602  0.63956601  0.19931824    -0.92800
O1252       O  0.70651038  0.56529336  0.16992408    -0.93100
O1253       O  0.75608827  0.62686553  0.17529607    -0.91900
C1254       C  0.60634562  0.66257442  0.21112533     1.17200
H1255       H  0.63487194  0.56236831  0.13208780     0.33100
H1256       H  0.73445538  0.68090643  0.12702832     0.43900
H1257       H  0.54432559  0.68985616  0.15362755     0.37500
H1258       H  0.59868090  0.65825984  0.04640544     0.34000
H1259       H  0.80601089  0.60021808  0.12977735     0.25700
H1260       H  0.69684332  0.72779266  0.02868649     0.31700
H1261       H  0.56958176  0.74151764  0.05309052     0.37600
H1262       H  0.73746302  0.55378376  0.16837977     0.32000
H1263       H  0.54173266  0.56719912  0.19296103     0.30900
H1264       H  0.48421936  0.61965958  0.17857474     0.32600
H1265       H  0.47345774  0.70390114  0.12967124     0.31600
H1266       H  0.73703532  0.64377193  0.18623138     0.35600
H1267       H  0.64897306  0.75033234  0.19563333     0.28300
H1268       H  0.57992984  0.55295165  0.03207652     0.32500
H1269       H  0.46941530  0.68695811  0.05618552     0.35400
H1270       H  0.59362751  0.55688029  0.18597040     0.28000
H1271       H  0.69663293  0.72955674  0.19534960     0.40900
H1272       H  0.76880033  0.64739171  0.05723552     0.30900
H1273       H  0.79076601  0.61907676  0.10185941     0.38500
H1274       H  0.46296663  0.66641607  0.11767516     0.30400
H1275       H  0.64431957  0.71653738  0.02701458     0.30500
H1276       H  0.54892379  0.58699538  0.03332494     0.30700
C1277       C  0.73940118  0.61612437  0.35253756     0.86200
C1278       C  0.72647877  0.60772420  0.38311775    -0.54100
C1279       C  0.69610074  0.63068034  0.39513542     0.09100
C1280       C  0.68054471  0.66059032  0.37502660     0.20100
C1281       C  0.69257637  0.61874308  0.33696160    -0.54800
C1282       C  0.66040946  0.64205360  0.34809673     0.09200
C1283       C  0.75635873  0.65399479  0.35252647    -0.54300
C1284       C  0.72650067  0.67712231  0.36476321     0.09800
H1285       H  0.74204455  0.58611305  0.39486854     0.14300
H1286       H  0.65806281  0.68014683  0.38551007     0.00000
H1287       H  0.68867445  0.60652542  0.31680865     0.14600
H1288       H  0.78965004  0.66213721  0.34376540     0.14400
Zr1289     Zr  0.95956596  0.94841975  0.33258182     2.17500
O1290       O  0.01506777  0.97391238  0.29937872    -0.51600
O1291       O  0.90100847  0.99433631  0.32730090    -0.74800
O1292       O  0.93779074  0.93446553  0.28342260    -0.81600
O1293       O  0.02486949  0.98881145  0.39344263    -0.83400
O1294       O  0.90070826  0.88178700  0.28356157    -0.79000
O1295       O  0.00297403  0.00035103  0.34814902    -0.90600
O1296       O  0.84185824  0.98192111  0.35779364    -0.76600
O1297       O  0.88513803  0.92143964  0.33859750    -0.86100
O1298       O  0.93611540  0.95899024  0.38027249    -0.85800
O1299       O  0.97271699  0.88683482  0.32427771    -0.72500
O1300       O  0.01943846  0.92270011  0.36217142    -0.84700
Zr1301     Zr  0.92946498  0.84348462  0.40762707     2.26400
Zr1302     Zr  0.89768303  0.86012358  0.33115719     2.06300
Zr1303     Zr  0.99430267  0.93227083  0.40943113     2.10000
Zr1304     Zr  0.86235582  0.93199645  0.38617011     1.78800
O1305       O  0.07560015  0.91986833  0.42116023    -0.93500
O1306       O  0.78334196  0.91995484  0.36957601    -0.41300
O1307       O  0.91947085  0.90542107  0.41615488    -0.77900
O1308       O  0.87083218  0.87096193  0.37823878    -0.96600
O1309       O  0.95491051  0.83315074  0.36050795    -0.89900
O1310       O  0.00491920  0.87037782  0.40295458    -0.92700
C1311       C  0.86125066  0.00061563  0.33871635     1.01000
C1312       C  0.02344732  0.00866287  0.37143350     1.13900
C1313       C  0.91747686  0.90858153  0.27091113     1.04700
O1314       O  0.81970405  0.85958229  0.31054386    -0.94900
O1315       O  0.85213420  0.81097071  0.34778823    -0.90600
O1316       O  0.86383862  0.80508202  0.39496086    -0.83800
C1317       C  0.84297515  0.79680532  0.37176683     1.11400
O1318       O  0.09851239  0.88534057  0.33358996    -0.96900
Zr1319     Zr  0.02886637  0.86074223  0.35542475     1.88900
O1320       O  0.97926694  0.79091458  0.40476994    -0.73500
O1321       O  0.92346144  0.81076372  0.30253071    -0.52800
O1322       O  0.04690475  0.83166757  0.31091900    -0.97500
O1323       O  0.10158896  0.84989620  0.38112046    -0.54700
O1324       O  0.02728490  0.79939902  0.36750381    -0.74000
C1325       C  0.00952209  0.77989943  0.38674224     0.98300
O1326       O  0.89363494  0.80508709  0.44275454    -0.62900
O1327       O  0.99515471  0.97638948  0.44674802    -0.57700
O1328       O  0.94137193  0.86128253  0.45720462    -0.94300
O1329       O  0.97633572  0.91450648  0.45697023    -0.92800
O1330       O  0.85419574  0.98020692  0.41949857    -0.93100
O1331       O  0.81176374  0.91860199  0.42610413    -0.91900
C1332       C  0.95781096  0.88845805  0.46986080     1.17200
H1333       H  0.93343300  0.98377795  0.38415588     0.33100
H1334       H  0.83973527  0.86219079  0.38131870     0.43900
H1335       H  0.02635362  0.86070635  0.41667179     0.37500
H1336       H  0.98383745  0.88309287  0.30526243     0.34000
H1337       H  0.76339774  0.93746844  0.37924091     0.25700
H1338       H  0.89751225  0.80679478  0.28906037     0.31700
H1339       H  0.02870918  0.80964437  0.31132018     0.37600
H1340       H  0.87733670  0.97500725  0.43452517     0.32000
H1341       H  0.02793985  0.98444939  0.44811275     0.30900
H1342       H  0.09264097  0.94140601  0.41575229     0.32600
H1343       H  0.11891083  0.83293864  0.36920928     0.31600
H1344       H  0.83072305  0.90302545  0.43838886     0.35600
H1345       H  0.91931120  0.79670699  0.45510922     0.28300
H1346       H  0.99596480  0.98825130  0.28623092     0.32500
H1347       H  0.08644651  0.90135257  0.31876285     0.35400
H1348       H  0.97749844  0.99672454  0.43917889     0.28000
H1349       H  0.87373574  0.82013525  0.45484530     0.40900
H1350       H  0.80628829  0.88279450  0.31522030     0.30900
H1351       H  0.78315779  0.92747397  0.34953807     0.38500
H1352       H  0.09293111  0.83608316  0.39803249     0.30400
H1353       H  0.94909054  0.82020061  0.29076725     0.30500
H1354       H  0.02653884  0.95400787  0.28787253     0.30700
C1355       C  0.84123236  0.92800228  0.10679994     0.86200
C1356       C  0.84642062  0.93029907  0.13889473    -0.54100
C1357       C  0.87639733  0.90646286  0.15066748     0.09100
C1358       C  0.89642440  0.88015687  0.12856748     0.20100
C1359       C  0.89180070  0.92911414  0.09583243    -0.54800
C1360       C  0.92166807  0.90365357  0.10632999     0.09200
C1361       C  0.82574460  0.89054362  0.10101805    -0.54300
C1362       C  0.85326303  0.86559808  0.11305292     0.09800
H1363       H  0.82726356  0.94958036  0.15107437     0.14300
H1364       H  0.91709069  0.85863189  0.13771534     0.00000
H1365       H  0.90361744  0.94796720  0.08056449     0.14600
H1366       H  0.79341275  0.88416309  0.09015077     0.14400
C1367       C  0.46962819  0.90249072  0.15346704    -0.02800
C1368       C  0.10648210  0.64554282  0.40246121    -0.02800
Zr1369     Zr  0.12101111  0.70293721  0.16594150     2.17500
O1370       O  0.06557684  0.72624099  0.20023998    -0.51600
O1371       O  0.18107239  0.74764036  0.16855611    -0.74800
O1372       O  0.14674355  0.68848234  0.21437004    -0.81600
O1373       O  0.06296547  0.74603332  0.10340291    -0.83400
O1374       O  0.18284615  0.63499261  0.21392431    -0.79000
O1375       O  0.07816704  0.75605477  0.14984295    -0.90600
O1376       O  0.24545449  0.71802292  0.15512079    -0.76600
O1377       O  0.19381203  0.67267992  0.16103368    -0.86100
O1378       O  0.14832505  0.71354606  0.11893371    -0.85800
O1379       O  0.10556331  0.64150411  0.17358620    -0.72500
O1380       O  0.06206149  0.67969650  0.13488866    -0.84700
Zr1381     Zr  0.14899283  0.59857628  0.09035880     2.26400
Zr1382     Zr  0.17892061  0.61164122  0.16697068     2.06300
Zr1383     Zr  0.09089902  0.68908389  0.08832325     2.10000
Zr1384     Zr  0.22100073  0.68401522  0.11467391     1.78800
O1385       O  0.00900301  0.68619477  0.07454199    -0.93500
O1386       O  0.30105050  0.66502744  0.12354631    -0.41300
O1387       O  0.16445050  0.65990123  0.08291020    -0.77900
O1388       O  0.20870026  0.62274617  0.12043902    -0.96600
O1389       O  0.12082338  0.58797188  0.13675020    -0.89900
O1390       O  0.07537249  0.62805650  0.09473636    -0.92700
C1391       C  0.22516074  0.74563196  0.16412991     1.01000
C1392       C  0.06224425  0.76567290  0.12542674     1.13900
C1393       C  0.16832480  0.66265487  0.22638158     1.04700
O1394       O  0.25580610  0.60645076  0.18861791    -0.94900
O1395       O  0.22182147  0.56084427  0.15044999    -0.90600
O1396       O  0.20893988  0.55523192  0.10341144    -0.83800
C1397       C  0.22920679  0.54593298  0.12656014     1.11400
O1398       O  0.98391336  0.64502179  0.16763653    -0.96900
Zr1399     Zr  0.04856342  0.61828807  0.14169741     1.88900
O1400       O  0.09938318  0.54665912  0.09345320    -0.73500
O1401       O  0.14604424  0.56353265  0.19439510    -0.52800
O1402       O  0.03340628  0.58488612  0.18465847    -0.97500
O1403       O  0.97476453  0.61645031  0.11565721    -0.54700
O1404       O  0.04419682  0.55794785  0.12649677    -0.74000
C1405       C  0.06507157  0.53730074  0.10919560     0.98300
O1406       O  0.18479131  0.57132346  0.04907831    -0.62900
O1407       O  0.10691549  0.73258753  0.05175968    -0.57700
O1408       O  0.12882223  0.61283384  0.04143634    -0.94300
O1409       O  0.09974133  0.66833679  0.04081971    -0.92800
O1410       O  0.23225492  0.74033864  0.09127271    -0.93100
O1411       O  0.27055178  0.68111761  0.07293019    -0.91900
C1412       C  0.11313459  0.64018923  0.02856587     1.17200
H1413       H  0.15211598  0.73833375  0.11540029     0.33100
H1414       H  0.23891565  0.61211788  0.11745395     0.43900
H1415       H  0.05360284  0.61959506  0.08073915     0.37500
H1416       H  0.09447494  0.63792927  0.19265578     0.34000
H1417       H  0.31966682  0.68686528  0.12294175     0.25700
H1418       H  0.17348337  0.54984683  0.20091832     0.31700
H1419       H  0.00871282  0.56798971  0.17937200     0.37600
H1420       H  0.25807283  0.75158381  0.10180041     0.32000
H1421       H  0.07620960  0.74316355  0.04710108     0.30900
H1422       H  0.00884075  0.69217788  0.05416419     0.32600
H1423       H  0.95428628  0.60083782  0.12684915     0.31600
H1424       H  0.25087130  0.66996902  0.05827679     0.35600
H1425       H  0.21873829  0.57567184  0.05097046     0.28300
H1426       H  0.08425521  0.74154951  0.21276091     0.32500
H1427       H  0.96299731  0.62564128  0.17334270     0.35400
H1428       H  0.12451145  0.75145021  0.06136241     0.28000
H1429       H  0.18107440  0.54572543  0.05180200     0.40900
H1430       H  0.27015679  0.62981709  0.18602020     0.30900
H1431       H  0.30145809  0.65802859  0.14369534     0.38500
H1432       H  0.98127285  0.60283761  0.09831422     0.30400
H1433       H  0.13356941  0.57457426  0.21175006     0.30500
H1434       H  0.05681043  0.70596507  0.21220546     0.30700
C1435       C  0.23737900  0.67833099  0.38972536     0.86200
C1436       C  0.23015746  0.68089875  0.35786698    -0.54100
C1437       C  0.20298512  0.65538821  0.34644019     0.09100
C1438       C  0.18407516  0.62929805  0.36868871     0.20100
C1439       C  0.18737164  0.67780491  0.40187950    -0.54800
C1440       C  0.15835501  0.65154087  0.39183422     0.09200
C1441       C  0.25508930  0.64135205  0.39523188    -0.54300
C1442       C  0.22815488  0.61582122  0.38383426     0.09800
H1443       H  0.24532806  0.70187080  0.34533166     0.14300
H1444       H  0.16374624  0.60797190  0.35885784     0.00000
H1445       H  0.17705080  0.69641623  0.41725645     0.14600
H1446       H  0.28784799  0.63578734  0.40598886     0.17600
Zr1447     Zr  0.46509257  0.84238621  0.41002003     2.17500
O1448       O  0.52297586  0.81621000  0.44164126    -0.51600
O1449       O  0.40523184  0.79649069  0.41232117    -0.74800
O1450       O  0.44362312  0.85106634  0.46005999    -0.81600
O1451       O  0.53092808  0.80915632  0.34682515    -0.83400
O1452       O  0.40311552  0.90249833  0.46271791    -0.79000
O1453       O  0.51163326  0.79308297  0.39150837    -0.90600
O1454       O  0.34264588  0.81527587  0.38662752    -0.76600
O1455       O  0.38997657  0.86905817  0.40523146    -0.86100
O1456       O  0.44207905  0.83586003  0.36181848    -0.85800
O1457       O  0.47632302  0.90333223  0.42183126    -0.72500
O1458       O  0.52292187  0.87251743  0.38180660    -0.84700
Zr1459     Zr  0.43211851  0.95319867  0.34122468     2.26400
Zr1460     Zr  0.40064795  0.92951077  0.41664844     2.06300
Zr1461     Zr  0.49845507  0.86602965  0.33385874     2.10000
Zr1462     Zr  0.36781608  0.86254478  0.35696508     1.78800
O1463       O  0.58066700  0.86854996  0.32093807    -0.93500
O1464       O  0.28669840  0.87728788  0.36710321    -0.41300
O1465       O  0.42325766  0.89268033  0.32830399    -0.77900
O1466       O  0.37464855  0.92255417  0.36884308    -0.96600
O1467       O  0.45658853  0.96062897  0.38894996    -0.89900
O1468       O  0.50797117  0.92705729  0.34478801    -0.92700
C1469       C  0.36312214  0.79346515  0.40302924     1.01000
C1470       C  0.53173554  0.78731067  0.36757284     1.13900
C1471       C  0.42131412  0.87503978  0.47379986     1.04700
O1472       O  0.32302401  0.92804382  0.43759892    -0.94900
O1473       O  0.35270703  0.97864696  0.40257966    -0.90600
O1474       O  0.36588381  0.49008536  0.35703132    -0.83800
C1475       C  0.34376826  0.49556452  0.38023488     1.11400
O1476       O  0.59381820  0.90994703  0.42231654    -0.96900
Zr1477     Zr  0.53146257  0.93376491  0.39274319     1.88900
O1478       O  0.48105168  0.50417119  0.34433328    -0.73500
O1479       O  0.42529051  0.97599199  0.44851269    -0.52800
O1480       O  0.53774451  0.96775136  0.43616525    -0.97500
O1481       O  0.60836950  0.93495249  0.37059542    -0.54700
O1482       O  0.54075625  0.99392414  0.37616045    -0.74000
C1483       C  0.51755138  0.51335004  0.35820034     0.98300
O1484       O  0.39194126  0.99310206  0.30883086    -0.62900
O1485       O  0.47784385  0.82481380  0.29655439    -0.57700
O1486       O  0.44536521  0.93989035  0.29111637    -0.94300
O1487       O  0.49391301  0.89273939  0.28736765    -0.92800
O1488       O  0.36447450  0.81279122  0.32481690    -0.93100
O1489       O  0.32191627  0.87314616  0.31443658    -0.91900
C1490       C  0.46980562  0.91793409  0.27669723     1.17200
H1491       H  0.44016200  0.81138383  0.35677604     0.33100
H1492       H  0.34340946  0.93131360  0.36601154     0.43900
H1493       H  0.52952886  0.93807957  0.33190532     0.37500
H1494       H  0.48720003  0.90543748  0.44107874     0.34000
H1495       H  0.26919504  0.85539404  0.36349021     0.25700
H1496       H  0.39797818  0.97993159  0.46094712     0.31700
H1497       H  0.52784500  0.99182502  0.43100018     0.37600
H1498       H  0.33459262  0.80101105  0.32927140     0.32000
H1499       H  0.50808412  0.81602971  0.28926919     0.30900
H1500       H  0.58446063  0.85023242  0.30630721     0.32600
H1501       H  0.60453083  0.94890683  0.35307769     0.31600
H1502       H  0.32230443  0.89894481  0.31201597     0.35600
H1503       H  0.41640144  0.00326458  0.29654249     0.28300
H1504       H  0.50543176  0.79940403  0.45352360     0.32500
H1505       H  0.61325318  0.93026842  0.42779177     0.35400
H1506       H  0.46390810  0.80441973  0.30636731     0.28000
H1507       H  0.37275273  0.97819210  0.29626275     0.40900
H1508       H  0.31325280  0.90322709  0.43623041     0.30900
H1509       H  0.28562816  0.88020542  0.38787692     0.38500
H1510       H  0.61363007  0.91066090  0.36394712     0.30400
H1511       H  0.44894449  0.96493297  0.46097869     0.30500
H1512       H  0.53231942  0.83523695  0.45468314     0.30700
C1513       C  0.34699635  0.86085235  0.13876747     0.86200
C1514       C  0.35782830  0.85557851  0.10747341    -0.54100
C1515       C  0.38255129  0.88186789  0.09484673     0.09100
C1516       C  0.39493204  0.91181114  0.11594742     0.20100
C1517       C  0.39523122  0.86589500  0.15222480    -0.54800
C1518       C  0.42060880  0.89343567  0.14129030     0.09200
C1519       C  0.32393016  0.89688378  0.14113483    -0.54300
C1520       C  0.34772025  0.92335911  0.12870734     0.09800
H1521       H  0.34717276  0.83193981  0.09651006     0.14300
H1522       H  0.41359800  0.93400773  0.10616705     0.00000
H1523       H  0.40823036  0.85025103  0.16962247     0.14600
H1524       H  0.29025837  0.90101653  0.15121334     0.14400
C1525       C  0.41496144  0.87224395  0.00517831    -0.05800
C1526       C  0.44450793  0.89154979  0.02295656    -0.33200
C1527       C  0.43442380  0.89574887  0.05187760     0.36100
C1528       C  0.39411893  0.88017150  0.06371481    -0.06100
C1529       C  0.36435634  0.86124812  0.04534902    -0.33100
C1530       C  0.37469929  0.85703337  0.01660184     0.36000
H1531       H  0.47484474  0.90449523  0.01414369     0.16300
O1532       O  0.46457698  0.91490846  0.06814015    -0.60600
H1533       H  0.33194070  0.85022850  0.05296339     0.16300
O1534       O  0.34352268  0.84131657  0.49906073    -0.60700
H1535       H  0.35162876  0.81449055  0.00163345     0.43300
H1536       H  0.45891586  0.93974049  0.06283905     0.43300
C1537       C  0.27279132  0.70593209  0.39932859    -0.05800
C1538       C  0.26026321  0.73501553  0.41606458    -0.33200
C1539       C  0.29157471  0.76281741  0.42014229     0.36100
C1540       C  0.33674474  0.76129250  0.40851483    -0.06100
C1541       C  0.35070474  0.73134348  0.39389135    -0.33100
C1542       C  0.31924716  0.70418758  0.38879274     0.36000
H1543       H  0.22553300  0.73794066  0.42453184     0.16300
O1544       O  0.27707587  0.79218416  0.43441999    -0.60600
H1545       H  0.38472581  0.73049923  0.38384344     0.16300
O1546       O  0.33294733  0.67754248  0.37111796    -0.60700
H1547       H  0.35571296  0.66338790  0.38214937     0.43300
H1548       H  0.25746624  0.80548380  0.42078906     0.43300
C1549       C  0.24538078  0.57968397  0.38325753    -0.05800
C1550       C  0.25595114  0.56462025  0.35713732    -0.33200
C1551       C  0.28666900  0.53613379  0.35564409     0.36100
C1552       C  0.30643569  0.52230703  0.38069178    -0.06100
C1553       C  0.29094185  0.53499577  0.40694473    -0.33100
C1554       C  0.26106506  0.56377359  0.40833675     0.36000
H1555       H  0.24351927  0.57668742  0.33776100     0.16300
O1556       O  0.29749061  0.52239031  0.32968368    -0.60600
H1557       H  0.30409272  0.52405425  0.42656460     0.16300
O1558       O  0.24871575  0.57717005  0.43421908    -0.60700
H1559       H  0.27747584  0.58796930  0.44197530     0.43300
H1560       H  0.31828056  0.53985565  0.32061606     0.43300
C1561       C  0.19380056  0.65460673  0.31536555    -0.05800
C1562       C  0.22974301  0.66473105  0.29673976    -0.33200
C1563       C  0.22137211  0.66877615  0.26781543     0.36100
C1564       C  0.17631110  0.66332930  0.25698139    -0.06100
C1565       C  0.14074420  0.65199271  0.27510514    -0.33100
C1566       C  0.14934185  0.64694207  0.30402786     0.36000
H1567       H  0.26471203  0.66943705  0.30462684     0.16300
O1568       O  0.25774016  0.67712592  0.25019932    -0.60600
H1569       H  0.10646936  0.64608124  0.26663590     0.16300
O1570       O  0.11356246  0.63573153  0.32097953    -0.60700
H1571       H  0.11103763  0.61017080  0.31747191     0.43300
H1572       H  0.25571316  0.70289010  0.24755709     0.43300
C1573       C  0.25288751  0.77773186  0.16467765    -0.05800
C1574       C  0.23781996  0.80474377  0.14698226    -0.33200
C1575       C  0.26839171  0.83091097  0.13855821     0.36100
C1576       C  0.31442466  0.83229855  0.14962713    -0.06100
C1577       C  0.32850202  0.80618517  0.16905368    -0.33100
C1578       C  0.29824515  0.77864227  0.17613152     0.36000
H1579       H  0.20349514  0.80369372  0.13727825     0.16300
O1580       O  0.25324408  0.85456534  0.11860366    -0.60600
H1581       H  0.36339004  0.80560189  0.17770078     0.16300
O1582       O  0.31403600  0.75185506  0.19305281    -0.60700
H1583       H  0.30249442  0.75755882  0.21226360     0.43300
H1584       H  0.25703315  0.84253758  0.10017147     0.43300
C1585       C  0.26417920  0.51683092  0.12616865    -0.05800
C1586       C  0.28055742  0.50335672  0.15207039    -0.33200
C1587       C  0.31228576  0.97541255  0.15258462     0.36100
C1588       C  0.32649862  0.95882046  0.12747717    -0.06100
C1589       C  0.31196196  0.97272236  0.10144825    -0.33100
C1590       C  0.28182511  0.00190773  0.10032151     0.36000
H1591       H  0.26862662  0.51424106  0.17193484     0.16300
O1592       O  0.32683737  0.96296290  0.17839480    -0.60600
H1593       H  0.32214653  0.95986945  0.08198691     0.16300
O1594       O  0.26813006  0.01441397  0.07441616    -0.60700
H1595       H  0.28955428  0.03417633  0.07034782     0.43300
H1596       H  0.29593430  0.44982188  0.18669456     0.43300
C1597       C  0.10618088  0.64467024  0.43609681    -0.05800
C1598       C  0.09437691  0.61394996  0.45167925    -0.33200
C1599       C  0.09876753  0.61078104  0.98179197     0.36100
C1600       C  0.11087524  0.64046677  0.99739776    -0.06100
C1601       C  0.11655345  0.67233160  0.98320889    -0.33100
C1602       C  0.11349686  0.67546732  0.45281868     0.36000
H1603       H  0.07951635  0.59119474  0.44187475     0.16300
O1604       O  0.08831012  0.57981800  0.99514096    -0.60600
H1605       H  0.12242498  0.69612637  0.99518181     0.16300
O1606       O  0.11029763  0.70847490  0.44102509    -0.60700
H1607       H  0.13389946  0.72353418  0.45041033     0.43300
H1608       H  0.11767651  0.56594933  0.99468868     0.43300
C1609       C  0.46808426  0.91154338  0.18572053    -0.05800
C1610       C  0.42593411  0.91316202  0.20139848    -0.33200
C1611       C  0.42606761  0.91713835  0.23083898     0.36100
C1612       C  0.46850114  0.92033624  0.24552205    -0.06100
C1613       C  0.51015623  0.92217685  0.23016574    -0.33100
C1614       C  0.51018843  0.91886924  0.20060907     0.36000
H1615       H  0.39228763  0.91119052  0.19127242     0.16300
O1616       O  0.38444584  0.91650000  0.24518626    -0.60600
H1617       H  0.54305955  0.92534937  0.24120711     0.16300
O1618       O  0.55198876  0.92089778  0.18653086    -0.60700
H1619       H  0.56814832  0.39795277  0.19266438     0.43300
H1620       H  0.37995437  0.89165129  0.25077624     0.43300
C1621       C  0.04895607  0.54282883  0.37453163    -0.05800
C1622       C  0.09228146  0.54493728  0.38804779    -0.33200
C1623       C  0.11168614  0.57734260  0.39577571     0.36100
C1624       C  0.08776804  0.60959119  0.39023378    -0.06100
C1625       C  0.04551773  0.60704140  0.37458936    -0.33100
C1626       C  0.02634276  0.57429147  0.36685859     0.36000
H1627       H  0.10842157  0.02080207  0.39284746     0.16300
O1628       O  0.15290911  0.57726458  0.41064921    -0.60600
H1629       H  0.02581714  0.63021668  0.36891361     0.16300
O1630       O  0.98359776  0.57331315  0.35374916    -0.60700
H1631       H  0.98941250  0.58107372  0.33405120     0.43300
H1632       H  0.14894897  0.56093054  0.42681649     0.43300
C1633       C  0.02694603  0.74290152  0.38772764    -0.05800
C1634       C  0.06357118  0.73370116  0.36960798    -0.33200
C1635       C  0.08707734  0.70178157  0.37201788     0.36100
C1636       C  0.07432719  0.67697877  0.39303857    -0.06100
C1637       C  0.03215917  0.68395136  0.40787981    -0.33100
C1638       C  0.00924195  0.71671204  0.40582324     0.36000
H1639       H  0.07591997  0.75195959  0.35373367     0.16300
O1640       O  0.12153702  0.69516131  0.35282806    -0.60600
H1641       H  0.01895719  0.66491969  0.42286721     0.16300
O1642       O  0.97076357  0.72305538  0.42227675    -0.60700
H1643       H  0.94391860  0.71414728  0.41115664     0.43300
H1644       H  0.14416371  0.71472386  0.35452964     0.43300
C1645       C  0.91246555  0.90879519  0.23978858    -0.05800
C1646       C  0.90247155  0.94005454  0.22563274    -0.33200
C1647       C  0.89107321  0.94000925  0.19681894     0.36100
C1648       C  0.89024845  0.90800422  0.18129683    -0.06100
C1649       C  0.90324296  0.87706553  0.19536659    -0.33100
C1650       C  0.91411432  0.87723144  0.22421225     0.36000
H1651       H  0.90181111  0.96460182  0.23714397     0.16300
O1652       O  0.88259905  0.97172350  0.18403512    -0.60600
H1653       H  0.90374588  0.85225746  0.18433815     0.16300
O1654       O  0.92559781  0.84612067  0.23709860    -0.60700
H1655       H  0.95990141  0.84381045  0.23480281     0.43300
H1656       H  0.85326048  0.98070428  0.19256046     0.43300
C1657       C  0.77582965  0.59003142  0.34167089    -0.05800
C1658       C  0.76261729  0.56070918  0.32535801    -0.33200
C1659       C  0.79349362  0.53262767  0.32123469     0.36100
C1660       C  0.83850182  0.53367695  0.33293408    -0.06100
C1661       C  0.85323793  0.56366159  0.34717136    -0.33100
C1662       C  0.82228410  0.59129337  0.35219173     0.36000
H1663       H  0.72726740  0.55755561  0.31782985     0.16300
O1664       O  0.77842184  0.00462300  0.30445009    -0.60600
H1665       H  0.88717023  0.56396939  0.35737364     0.16300
O1666       O  0.83624433  0.61739670  0.37023520    -0.60700
H1667       H  0.85953832  0.63129339  0.35951925     0.43300
H1668       H  0.76338069  0.98908345  0.31857499     0.43300
C1669       C  0.80513745  0.76999177  0.37207528    -0.05800
C1670       C  0.78174448  0.76228977  0.34658217    -0.33200
C1671       C  0.75058663  0.73430191  0.34477422     0.36100
C1672       C  0.74144579  0.71371177  0.36870778    -0.06100
C1673       C  0.76025165  0.72357371  0.39485840    -0.33100
C1674       C  0.79227305  0.75130527  0.39670897     0.36000
H1675       H  0.78926215  0.77678709  0.32742227     0.16300
O1676       O  0.73131937  0.72585073  0.31910003    -0.60600
H1677       H  0.75324262  0.70792532  0.41346297     0.16300
O1678       O  0.81187051  0.75890431  0.42243745    -0.60700
H1679       H  0.83603772  0.74058544  0.42553354     0.43300
H1680       H  0.75563885  0.71209617  0.30908245     0.43300
C1681       C  0.52755564  0.50190726  0.12217534    -0.05800
C1682       C  0.48388086  0.50059711  0.13524852    -0.33200
C1683       C  0.46578819  0.96922539  0.14378006     0.36100
C1684       C  0.48916582  0.93665375  0.13932917    -0.06100
C1685       C  0.53264914  0.93807158  0.12509184    -0.33100
C1686       C  0.55108696  0.47003551  0.11682221     0.36000
H1687       H  0.46504234  0.52471646  0.13952509     0.16300
O1688       O  0.42334947  0.97039587  0.15713858    -0.60600
H1689       H  0.55328864  0.91467289  0.12198092     0.16300
O1690       O  0.59452965  0.47017719  0.10466474    -0.60700
H1691       H  0.58984886  0.96272881  0.08394544     0.43300
H1692       H  0.42774076  0.48207898  0.17582735     0.43300
C1693       C  0.53967271  0.80078658  0.13482497    -0.05800
C1694       C  0.53305012  0.81117114  0.16282872    -0.33200
C1695       C  0.51136247  0.84304764  0.16967236     0.36100
C1696       C  0.49885709  0.86792877  0.14811562    -0.06100
C1697       C  0.50614128  0.85684268  0.11990149    -0.33100
C1698       C  0.52613527  0.82410457  0.11319760     0.36000
H1699       H  0.54197777  0.79325697  0.17983358     0.16300
O1700       O  0.50001544  0.84763938  0.19754843    -0.60600
H1701       H  0.49500796  0.87345062  0.10273441     0.16300
O1702       O  0.53187354  0.81512621  0.08536100    -0.60700
H1703       H  0.56149825  0.82642434  0.07950996     0.43300
H1704       H  0.47101057  0.83400041  0.20056296     0.43300
C1705       C  0.68762404  0.62956497  0.42608331    -0.05800
C1706       C  0.64467372  0.61830138  0.43711923    -0.33200
C1707       C  0.63813630  0.61528977  0.46655829     0.36100
C1708       C  0.67485900  0.62378164  0.48528823    -0.06100
C1709       C  0.71790789  0.63436486  0.47397769    -0.33100
C1710       C  0.72468264  0.63656177  0.44478817     0.36000
H1711       H  0.61641359  0.61149013  0.42292607     0.16300
O1712       O  0.59558209  0.60480336  0.47676728    -0.60600
H1713       H  0.74664901  0.64096277  0.48790354     0.16300
O1714       O  0.76776668  0.64593372  0.43467144    -0.60700
H1715       H  0.78578403  0.62372286  0.43350282     0.43300
H1716       H  0.57600483  0.62630633  0.47697987     0.43300
C1717       C  0.73950596  0.50847513  0.08486539    -0.05800
C1718       C  0.72624810  0.47915982  0.10060933    -0.33200
C1719       C  0.75888392  0.95366383  0.10488299     0.36100
C1720       C  0.80611885  0.95534126  0.09589508    -0.06100
C1721       C  0.81657323  0.48252169  0.07851461    -0.33100
C1722       C  0.78445767  0.50958964  0.07304508     0.36000
H1723       H  0.69219540  0.47853024  0.11058976     0.16300
O1724       O  0.74394244  0.92714664  0.12230093    -0.60600
H1725       H  0.85104303  0.48533314  0.06973250     0.16300
O1726       O  0.79824146  0.53819667  0.05756014    -0.60700
H1727       H  0.81566862  0.55324363  0.07098742     0.43300
H1728       H  0.72223732  0.91294092  0.11068595     0.43300
C1729       C  0.77185244  0.77291585  0.11415309    -0.05800
C1730       C  0.77712062  0.79292579  0.13887856    -0.33200
C1731       C  0.80821620  0.82112830  0.13984876     0.36100
C1732       C  0.83483110  0.82976550  0.11591362    -0.06100
C1733       C  0.83259883  0.80840097  0.09195935    -0.33100
C1734       C  0.80164954  0.78003627  0.09090506     0.36000
H1735       H  0.75540889  0.78795251  0.15717400     0.16300
O1736       O  0.80842067  0.84252752  0.16312278    -0.60600
H1737       H  0.85263925  0.81514143  0.07330842     0.16300
O1738       O  0.80009569  0.76017764  0.06676013    -0.60700
H1739       H  0.78261121  0.77455734  0.05277975     0.43300
H1740       H  0.82309425  0.82845800  0.17839927     0.43300
C1741       C  0.58182610  0.61379769  0.34000248    -0.05800
C1742       C  0.53993733  0.61206387  0.35593246    -0.33200
C1743       C  0.51845173  0.57967508  0.36231271     0.36100
C1744       C  0.53770589  0.54815449  0.35216771    -0.06100
C1745       C  0.57535347  0.54971933  0.33383887    -0.33100
C1746       C  0.59499310  0.58175527  0.32621447     0.36000
H1747       H  0.52177421  0.63547924  0.36230098     0.16300
O1748       O  0.47816295  0.57920551  0.37794414    -0.60600
H1749       H  0.58784277  0.52594523  0.32376838     0.16300
O1750       O  0.62287441  0.58139755  0.30273264    -0.60700
H1751       H  0.60121233  0.58074325  0.28634855     0.43300
H1752       H  0.48862165  0.57749085  0.39788906     0.43300
C1753       C  0.59155750  0.68473459  0.34666067    -0.05800
C1754       C  0.60142747  0.71569128  0.33098129    -0.33200
C1755       C  0.58415260  0.74858777  0.33817522     0.36100
C1756       C  0.55632531  0.75299098  0.36240800    -0.06100
C1757       C  0.55168056  0.72390877  0.38065178    -0.33100
C1758       C  0.57085872  0.69056106  0.37367331     0.36000
H1759       H  0.62324528  0.71526637  0.31243481     0.16300
O1760       O  0.59478615  0.77629276  0.32078532    -0.60600
H1761       H  0.53341394  0.72693862  0.40053144     0.16300
O1762       O  0.57076234  0.66458116  0.39381306    -0.60700
H1763       H  0.58674680  0.67440962  0.41063036     0.43300
H1764       H  0.62472809  0.78566316  0.32809902     0.43300
C1765       C  0.61095154  0.65307117  0.30199457    -0.05800
C1766       C  0.65206645  0.66005805  0.28637521    -0.33200
C1767       C  0.65075135  0.66487516  0.25700769     0.36100
C1768       C  0.60818807  0.66221114  0.24231175    -0.06100
C1769       C  0.56699358  0.65718393  0.25758412    -0.33100
C1770       C  0.56782156  0.65380567  0.28700557     0.36000
H1771       H  0.68527957  0.66358503  0.29679745     0.16300
O1772       O  0.69159592  0.67114247  0.24277884    -0.60600
H1773       H  0.53371588  0.65630884  0.24664989     0.16300
O1774       O  0.52601076  0.65223792  0.30111644    -0.60700
H1775       H  0.51265645  0.62897065  0.29647189     0.43300
H1776       H  0.69670978  0.69677058  0.24444965     0.43300
C1777       C  0.00154593  0.86769144  0.10428055    -0.05800
C1778       C  0.00372200  0.85685200  0.13297588    -0.33200
C1779       C  0.02334748  0.82400562  0.14096065     0.36100
C1780       C  0.04397002  0.80214465  0.12038631    -0.06100
C1781       C  0.04869479  0.81572484  0.09300750    -0.33100
C1782       C  0.03021658  0.84823635  0.08523432     0.36000
H1783       H  0.98892410  0.87340443  0.14925315     0.16300
O1784       O  0.02036828  0.81311831  0.16852001    -0.60600
H1785       H  0.06802892  0.80126122  0.07715562     0.16300
O1786       O  0.04159905  0.86068643  0.05887500    -0.60700
H1787       H  0.07580956  0.86478049  0.05923424     0.43300
H1788       H  0.04765647  0.82377187  0.17811817     0.43300
C1789       C  0.00293068  0.93354819  0.10346124    -0.05800
C1790       C  0.04592539  0.94035623  0.08962690    -0.33200
C1791       C  0.06804540  0.97324002  0.09155432     0.36100
C1792       C  0.04854653  0.99978750  0.10856405    -0.06100
C1793       C  0.01054641  0.99099509  0.12576001    -0.33100
C1794       C  0.98854909  0.95854254  0.12381131     0.36000
H1795       H  0.06016483  0.92157162  0.07498322     0.16300
O1796       O  0.10718728  0.97947621  0.07567048    -0.60600
H1797       H  0.99785351  0.50938296  0.14163597     0.16300
O1798       O  0.95415908  0.95154736  0.14288747    -0.60700
H1799       H  0.92951226  0.96930022  0.13909899     0.43300
H1800       H  0.13343226  0.96939232  0.08675678     0.43300
C1801       C  0.96445767  0.90008754  0.06186408    -0.05800
C1802       C  0.94570696  0.86922210  0.04965177    -0.33200
C1803       C  0.94249857  0.86369368  0.51939564     0.36100
C1804       C  0.95545777  0.89140083  0.50130119    -0.06100
C1805       C  0.96606801  0.92391466  0.51355151    -0.33100
C1806       C  0.97070464  0.92927539  0.04345019     0.36000
H1807       H  0.93612989  0.84740333  0.06312971     0.16300
O1808       O  0.92790280  0.83219344  0.50868013    -0.60600
H1809       H  0.97172297  0.94676796  0.50038009     0.16300
O1810       O  0.97528393  0.96286085  0.05359521    -0.60700
H1811       H  0.00307312  0.97305295  0.04416658     0.43300
H1812       H  0.95626389  0.81719614  0.50824131     0.43300
C1813       C  0.97210272  0.90024158  0.59396954    -0.02800
C1814       C  0.60987331  0.64906652  0.83494629    -0.02800
Zr1815     Zr  0.61669577  0.59356161  0.57822320     2.17500
O1816       O  0.56200873  0.56885682  0.54414630    -0.51600
O1817       O  0.67475904  0.54647328  0.57710964    -0.74800
O1818       O  0.64263205  0.60287249  0.52907895    -0.81600
O1819       O  0.54448684  0.55917188  0.63849471    -0.83400
O1820       O  0.68757578  0.65197865  0.52863791    -0.79000
O1821       O  0.57096974  0.54333686  0.59507501    -0.90600
O1822       O  0.73097230  0.56045928  0.60920445    -0.76600
O1823       O  0.69229473  0.61728825  0.58703535    -0.86100
O1824       O  0.63211305  0.58622033  0.62761425    -0.85800
O1825       O  0.61075041  0.65491559  0.56607522    -0.72500
O1826       O  0.55506397  0.62496415  0.60245121    -0.84700
Zr1827     Zr  0.64382091  0.70247586  0.64852352     2.26400
Zr1828     Zr  0.68698620  0.67793865  0.57521200     2.06300
Zr1829     Zr  0.57164430  0.61771291  0.65154870     2.10000
Zr1830     Zr  0.70687006  0.61038934  0.63625417     1.78800
O1831       O  0.48891200  0.63238216  0.65336936    -0.93500
O1832       O  0.78976795  0.61916603  0.62696477    -0.41300
O1833       O  0.64749908  0.64141793  0.66129097    -0.77900
O1834       O  0.70497899  0.67093203  0.62436202    -0.96600
O1835       O  0.62797934  0.71044056  0.59963377    -0.89900
O1836       O  0.56737176  0.67917707  0.64071095    -0.92700
C1837       C  0.71365389  0.54094106  0.58998031     1.01000
C1838       C  0.54843271  0.53713568  0.61808594     1.13900
C1839       C  0.66806093  0.62587627  0.51635663     1.04700
O1840       O  0.76842057  0.66616784  0.56356267    -0.94900
O1841       O  0.73066747  0.72837074  0.59047115    -0.90600
O1842       O  0.71164534  0.73856124  0.63621534    -0.83800
C1843       C  0.73613519  0.74458000  0.61389868     1.11400
O1844       O  0.50057580  0.66761727  0.55367362    -0.96900
Zr1845     Zr  0.55239100  0.68681976  0.59152304     1.88900
O1846       O  0.59009062  0.75244449  0.64586788    -0.73500
O1847       O  0.67901352  0.72487488  0.54053672    -0.52800
O1848       O  0.55631858  0.72616131  0.55096427    -0.97500
O1849       O  0.47119228  0.68699296  0.60712756    -0.54700
O1850       O  0.54049851  0.74635062  0.60882008    -0.74000
C1851       C  0.55767524  0.76397406  0.62943109     0.98300
O1852       O  0.67391682  0.74554518  0.68202758    -0.62900
O1853       O  0.55572159  0.58023873  0.69235306    -0.57700
O1854       O  0.63058299  0.68590415  0.69788065    -0.94300
O1855       O  0.58186513  0.63898082  0.69939462    -0.92800
O1856       O  0.70464349  0.56162455  0.66958564    -0.93100
O1857       O  0.75041818  0.62294176  0.67932815    -0.91900
C1858       C  0.60613619  0.66303916  0.71125956     1.17200
H1859       H  0.63291484  0.56177692  0.63299513     0.33100
H1860       H  0.73586191  0.67928511  0.62886270     0.43900
H1861       H  0.54450247  0.69085183  0.65240111     0.37500
H1862       H  0.60270542  0.65772560  0.54639230     0.34000
H1863       H  0.80550001  0.59876382  0.63585190     0.25700
H1864       H  0.70798563  0.72362955  0.52915447     0.31700
H1865       H  0.58085893  0.74337342  0.55582664     0.37600
H1866       H  0.73524664  0.54974664  0.66742511     0.32000
H1867       H  0.52351638  0.57134438  0.68980440     0.30900
H1868       H  0.47940875  0.62684355  0.67298217     0.32600
H1869       H  0.45609103  0.70606280  0.59617592     0.31600
H1870       H  0.72641970  0.63001944  0.69327022     0.35600
H1871       H  0.64694756  0.75268183  0.69380739     0.28300
H1872       H  0.58087930  0.55308588  0.53205626     0.32500
H1873       H  0.48141551  0.68832996  0.54851215     0.35400
H1874       H  0.57617283  0.55943735  0.69008448     0.28000
H1875       H  0.69495197  0.73250265  0.69496415     0.40900
H1876       H  0.78629117  0.67308995  0.58058187     0.30900
H1877       H  0.79325368  0.61510844  0.60641263     0.38500
H1878       H  0.47194255  0.69601966  0.62672075     0.30400
H1879       H  0.65399851  0.71705505  0.52754960     0.30500
H1880       H  0.55298257  0.58865980  0.53168470     0.30700
C1881       C  0.73861594  0.61694346  0.85253385     0.86200
C1882       C  0.72517412  0.60827536  0.88298058    -0.54100
C1883       C  0.69471100  0.63120647  0.89490825     0.09100
C1884       C  0.67956302  0.66128752  0.87496545     0.20100
C1885       C  0.69209523  0.61982913  0.83669743    -0.54800
C1886       C  0.65972595  0.64291177  0.84792653     0.09200
C1887       C  0.75575896  0.65473662  0.85286945    -0.54300
C1888       C  0.72578160  0.67781015  0.86506388     0.09800
H1889       H  0.74050623  0.58657379  0.89473760     0.14300
H1890       H  0.65679598  0.68069813  0.88546141     0.00000
H1891       H  0.68854716  0.60798221  0.81636882     0.14600
H1892       H  0.78928067  0.66284415  0.84440068     0.14400
Zr1893     Zr  0.95884958  0.94828214  0.83311925     2.17500
O1894       O  0.01519948  0.97143312  0.79934182    -0.51600
O1895       O  0.90023531  0.99437977  0.82843094    -0.74800
O1896       O  0.93555911  0.93510058  0.78396236    -0.81600
O1897       O  0.02720618  0.98764096  0.89291625    -0.83400
O1898       O  0.90116464  0.88142289  0.78403764    -0.79000
O1899       O  0.00162673  0.00049870  0.84856025    -0.90600
O1900       O  0.84283168  0.98270470  0.86032639    -0.76600
O1901       O  0.88444251  0.92167904  0.84005350    -0.86100
O1902       O  0.93694541  0.95887296  0.88107822    -0.85800
O1903       O  0.97179306  0.88672809  0.82496937    -0.72500
O1904       O  0.01915322  0.92209455  0.86221598    -0.84700
Zr1905     Zr  0.92948376  0.84338806  0.90851987     2.26400
Zr1906     Zr  0.89677791  0.86054732  0.83203366     2.06300
Zr1907     Zr  0.99537507  0.93178890  0.90975115     2.10000
Zr1908     Zr  0.86324642  0.93229902  0.88798349     1.78800
O1909       O  0.07600637  0.91783473  0.92188362    -0.93500
O1910       O  0.78237673  0.92304168  0.87382350    -0.41300
O1911       O  0.92052766  0.90527085  0.91735916    -0.77900
O1912       O  0.87082603  0.87125938  0.87940584    -0.96600
O1913       O  0.95402717  0.83312290  0.86118895    -0.89900
O1914       O  0.00516139  0.86975818  0.90328020    -0.92700
C1915       C  0.86130769  0.00109008  0.84074708     1.01000
C1916       C  0.02394414  0.00817394  0.87136011     1.13900
C1917       C  0.91655955  0.90871396  0.77134773     1.04700
O1918       O  0.81893374  0.86320180  0.81131161    -0.94900
O1919       O  0.85102218  0.81170415  0.84850180    -0.90600
O1920       O  0.86384153  0.80512785  0.89551272    -0.83800
C1921       C  0.84246551  0.79721632  0.87239702     1.11400
O1922       O  0.09359367  0.88122279  0.82744163    -0.96900
Zr1923     Zr  0.02824343  0.86001044  0.85562269     1.88900
O1924       O  0.97840808  0.79039491  0.90610895    -0.73500
O1925       O  0.92127316  0.80993411  0.80440162    -0.52800
O1926       O  0.04273780  0.82624778  0.81279812    -0.97500
O1927       O  0.10136538  0.85473053  0.88208615    -0.54700
O1928       O  0.02878485  0.79931864  0.87007220    -0.74000
C1929       C  0.00986667  0.77961326  0.88878069     0.98300
O1930       O  0.89382072  0.80497117  0.94367498    -0.62900
O1931       O  0.99750420  0.97734370  0.94594359    -0.57700
O1932       O  0.94100671  0.86214424  0.95803297    -0.94300
O1933       O  0.97657946  0.91518246  0.95750596    -0.92800
O1934       O  0.86002698  0.98014985  0.92196580    -0.93100
O1935       O  0.81308508  0.91921802  0.92818088    -0.91900
C1936       C  0.95772257  0.88937395  0.97056017     1.17200
H1937       H  0.93464143  0.98367285  0.88502142     0.33100
H1938       H  0.83970302  0.86261062  0.88261303     0.43900
H1939       H  0.02671752  0.85987695  0.91685687     0.37500
H1940       H  0.98270175  0.88298113  0.80591327     0.34000
H1941       H  0.76615498  0.94521191  0.87865455     0.25700
H1942       H  0.89523807  0.80589532  0.79100905     0.31700
H1943       H  0.06498217  0.80759198  0.81852096     0.37600
H1944       H  0.88579727  0.97515578  0.93538373     0.32000
H1945       H  0.03045186  0.98508712  0.94705121     0.30900
H1946       H  0.09488953  0.93174103  0.90843372     0.32600
H1947       H  0.12302449  0.84223060  0.86924754     0.31600
H1948       H  0.82006622  0.89443324  0.93289452     0.35600
H1949       H  0.91937756  0.79728117  0.95639951     0.28300
H1950       H  0.99682284  0.98650901  0.78635373     0.32500
H1951       H  0.08117761  0.90213825  0.81748285     0.35400
H1952       H  0.98016831  0.99760390  0.93796876     0.28000
H1953       H  0.87322595  0.81998756  0.95535747     0.40900
H1954       H  0.79726924  0.86231128  0.82759417     0.30900
H1955       H  0.78319564  0.92286400  0.85290402     0.38500
H1956       H  0.09520335  0.83746634  0.89726846     0.30400
H1957       H  0.94721171  0.81857609  0.79248115     0.30500
H1958       H  0.02489401  0.95107141  0.78775259     0.30700
C1959       C  0.84009048  0.92640836  0.60654983     0.86200
C1960       C  0.84546614  0.92924102  0.63864932    -0.54100
C1961       C  0.87593864  0.90586632  0.65063442     0.09100
C1962       C  0.89645715  0.87955259  0.62868851     0.20100
C1963       C  0.89056658  0.92795212  0.59542938    -0.54800
C1964       C  0.92097036  0.90283072  0.60598154     0.09200
C1965       C  0.82549055  0.88869086  0.60116274    -0.54300
C1966       C  0.85355072  0.86434282  0.61349540     0.09800
H1967       H  0.82586843  0.94840843  0.65068507     0.14300
H1968       H  0.91764409  0.85841191  0.63799281     0.00000
H1969       H  0.90170350  0.94669108  0.57988266     0.14600
H1970       H  0.79340348  0.88167167  0.59028914     0.14400
C1971       C  0.46984634  0.90205627  0.65387272    -0.02800
C1972       C  0.10645902  0.64510533  0.90345847    -0.02800
Zr1973     Zr  0.12170972  0.70267187  0.66614018     2.17500
O1974       O  0.06696865  0.72510167  0.70121889    -0.51600
O1975       O  0.18048620  0.74828970  0.66752375    -0.74800
O1976       O  0.14882740  0.68872766  0.71448332    -0.81600
O1977       O  0.06419973  0.74597088  0.60377650    -0.83400
O1978       O  0.18214601  0.63421136  0.71448252    -0.79000
O1979       O  0.07928610  0.75615849  0.65018631    -0.90600
O1980       O  0.24516085  0.71865250  0.65473028    -0.76600
O1981       O  0.19479659  0.67258146  0.66134666    -0.86100
O1982       O  0.14902321  0.71298803  0.61916796    -0.85800
O1983       O  0.10684678  0.64120258  0.67368487    -0.72500
O1984       O  0.06264818  0.67918601  0.63512923    -0.84700
Zr1985     Zr  0.14885968  0.59815397  0.59016926     2.26400
Zr1986     Zr  0.18027907  0.61144129  0.66707922     2.06300
Zr1987     Zr  0.09162117  0.68896986  0.58848711     2.10000
Zr1988     Zr  0.22162907  0.68342817  0.61483731     1.78800
O1989       O  0.01030868  0.68986035  0.57324025    -0.93500
O1990       O  0.30040187  0.66276015  0.62533371    -0.41300
O1991       O  0.16484831  0.65944162  0.58314883    -0.77900
O1992       O  0.20889295  0.62213401  0.62019413    -0.96600
O1993       O  0.12204984  0.58762216  0.63688853    -0.89900
O1994       O  0.07560094  0.62794330  0.59495284    -0.92700
C1995       C  0.22453474  0.74644279  0.66307217     1.01000
C1996       C  0.06357016  0.76576969  0.62570339     1.13900
C1997       C  0.16887452  0.66239163  0.72678585     1.04700
O1998       O  0.25894884  0.60695844  0.68648547    -0.94900
O1999       O  0.22199528  0.56010405  0.65026915    -0.90600
O2000       O  0.20697391  0.55342145  0.60349703    -0.83800
C2001       C  0.22789176  0.54438256  0.62654016     1.11400
O2002       O  0.98145699  0.64255178  0.66562583    -0.96900
Zr2003     Zr  0.04973875  0.61759241  0.64209702     1.88900
O2004       O  0.09917589  0.54602559  0.59370756    -0.73500
O2005       O  0.14956451  0.56433589  0.69638188    -0.52800
O2006       O  0.03617142  0.58761106  0.68695057    -0.97500
O2007       O  0.97746435  0.61042832  0.61513864    -0.54700
O2008       O  0.04719054  0.55664460  0.62870849    -0.74000
C2009       C  0.06648472  0.53628004  0.61059566     0.98300
O2010       O  0.18615101  0.57348397  0.54835497    -0.62900
O2011       O  0.11390824  0.73279605  0.55344985    -0.57700
O2012       O  0.12797426  0.61314797  0.54112601    -0.94300
O2013       O  0.10016344  0.66904194  0.54055109    -0.92800
O2014       O  0.23355978  0.73979775  0.59160439    -0.93100
O2015       O  0.27165815  0.68085494  0.57331409    -0.91900
C2016       C  0.11313810  0.64083066  0.52817290     1.17200
H2017       H  0.15296141  0.73774880  0.61557486     0.33100
H2018       H  0.23880055  0.61112191  0.61695371     0.43900
H2019       H  0.05364161  0.61971720  0.58097929     0.37500
H2020       H  0.09599970  0.63774936  0.69281603     0.34000
H2021       H  0.31971702  0.68425471  0.62558218     0.25700
H2022       H  0.13961280  0.54602963  0.68285393     0.31700
H2023       H  0.02081215  0.56526235  0.68188879     0.37600
H2024       H  0.26394229  0.74821847  0.59891843     0.32000
H2025       H  0.08415669  0.74339989  0.54693693     0.30900
H2026       H  0.01035502  0.70398721  0.55565302     0.32600
H2027       H  0.95796325  0.59450992  0.62668805     0.31600
H2028       H  0.26978274  0.65615751  0.56698991     0.35600
H2029       H  0.22012518  0.57643346  0.55145884     0.28300
H2030       H  0.08538421  0.74158869  0.71288179     0.32500
H2031       H  0.96303030  0.62245863  0.67273987     0.35400
H2032       H  0.12965112  0.75161078  0.56421998     0.28000
H2033       H  0.18072403  0.54789097  0.54953278     0.40900
H2034       H  0.26852669  0.63146879  0.69010923     0.30900
H2035       H  0.29916221  0.65524104  0.64534769     0.38500
H2036       H  0.98581171  0.59608285  0.59847114     0.30400
H2037       H  0.17744025  0.55424227  0.70582153     0.30500
H2038       H  0.06033098  0.70503217  0.71390224     0.30700
C2039       C  0.23766964  0.67786203  0.89130924     0.86200
C2040       C  0.23055843  0.68128134  0.85941927    -0.54100
C2041       C  0.20312351  0.65617492  0.84747645     0.09100
C2042       C  0.18408153  0.62957533  0.86935010     0.20100
C2043       C  0.18764947  0.67715722  0.90339528    -0.54800
C2044       C  0.15839821  0.65134146  0.89284857     0.09200
C2045       C  0.25506065  0.64067634  0.89617164    -0.54300
C2046       C  0.22815473  0.61555226  0.88418811     0.09800
H2047       H  0.24604128  0.70248703  0.84730648     0.14300
H2048       H  0.16365030  0.60843971  0.85935497     0.00000
H2049       H  0.17782806  0.69508531  0.91938441     0.14600
H2050       H  0.28761031  0.63468219  0.90700248     0.17600
Zr2051     Zr  0.46473357  0.84219249  0.91039408     2.17500
O2052       O  0.52194287  0.81615675  0.94246115    -0.51600
O2053       O  0.40618071  0.79540077  0.91251122    -0.74800
O2054       O  0.44172916  0.85083158  0.96032840    -0.81600
O2055       O  0.53083053  0.80922693  0.84693207    -0.83400
O2056       O  0.40349226  0.90321299  0.96334774    -0.79000
O2057       O  0.51197260  0.79348811  0.89180144    -0.90600
O2058       O  0.34147485  0.81615160  0.89011434    -0.76600
O2059       O  0.38931357  0.86807088  0.90580281    -0.86100
O2060       O  0.44170454  0.83532686  0.86211256    -0.85800
O2061       O  0.47542726  0.90323026  0.92209082    -0.72500
O2062       O  0.52251194  0.87245144  0.88218153    -0.84700
Zr2063     Zr  0.43030300  0.95220503  0.84139051     2.26400
Zr2064     Zr  0.39919684  0.92864401  0.91678935     2.06300
Zr2065     Zr  0.49796939  0.86603849  0.83419822     2.10000
Zr2066     Zr  0.36664219  0.86102760  0.85778765     1.78800
O2067       O  0.58030192  0.87047957  0.82192697    -0.93500
O2068       O  0.28562141  0.87660139  0.86773513    -0.41300
O2069       O  0.42182990  0.89146607  0.82881825    -0.77900
O2070       O  0.37311216  0.92140005  0.86897960    -0.96600
O2071       O  0.45494169  0.95983669  0.88903466    -0.89900
O2072       O  0.50674455  0.92708595  0.84497948    -0.92700
C2073       C  0.36306496  0.79323727  0.90496582     1.01000
C2074       C  0.53182698  0.78759533  0.86782459     1.13900
C2075       C  0.42045904  0.87521163  0.97426082     1.04700
O2076       O  0.32155168  0.92292817  0.93724903    -0.94900
O2077       O  0.34962415  0.97689367  0.90306083    -0.90600
O2078       O  0.36579777  0.48978291  0.85684098    -0.83800
C2079       C  0.34272389  0.49464520  0.87977271     1.11400
O2080       O  0.59191759  0.91279683  0.92444980    -0.96900
Zr2081     Zr  0.53041261  0.93379072  0.89286511     1.88900
O2082       O  0.48298553  0.50371758  0.84569409    -0.73500
O2083       O  0.42205102  0.97703328  0.94722548    -0.52800
O2084       O  0.53810171  0.97237874  0.93361927    -0.97500
O2085       O  0.60783632  0.93084736  0.87152704    -0.54700
O2086       O  0.54103939  0.99277643  0.87418296    -0.74000
C2087       C  0.51930642  0.51291183  0.85974843     0.98300
O2088       O  0.38960405  0.99075662  0.80816959    -0.62900
O2089       O  0.48176210  0.82578689  0.79544967    -0.57700
O2090       O  0.44250511  0.93802749  0.79142547    -0.94300
O2091       O  0.49558389  0.89380962  0.78806707    -0.92800
O2092       O  0.36279969  0.80975405  0.82713789    -0.93100
O2093       O  0.31779975  0.86826401  0.81598830    -0.91900
C2094       C  0.46929910  0.91755642  0.77717412     1.17200
H2095       H  0.44027992  0.81084083  0.85702902     0.33100
H2096       H  0.34196047  0.93026777  0.86599270     0.43900
H2097       H  0.52816633  0.93825354  0.83209459     0.37500
H2098       H  0.48630394  0.90549948  0.94132486     0.34000
H2099       H  0.26870063  0.85399805  0.86808727     0.25700
H2100       H  0.39509668  0.98041467  0.96003731     0.31700
H2101       H  0.51876731  0.99321033  0.92903292     0.37600
H2102       H  0.35100229  0.79048615  0.83920044     0.32000
H2103       H  0.51272599  0.81679476  0.78955119     0.30900
H2104       H  0.58477772  0.85328324  0.80650635     0.32600
H2105       H  0.60555228  0.94452169  0.85377548     0.31600
H2106       H  0.32443983  0.89235080  0.80928388     0.35600
H2107       H  0.41356415  0.99998647  0.79506100     0.28300
H2108       H  0.50391485  0.80023929  0.95486180     0.32500
H2109       H  0.61204086  0.93333149  0.92826848     0.35400
H2110       H  0.46619729  0.80541128  0.80433916     0.28000
H2111       H  0.36942596  0.97541029  0.79654066     0.40900
H2112       H  0.31586803  0.89734679  0.93814475     0.30900
H2113       H  0.28574990  0.88444135  0.88766808     0.38500
H2114       H  0.61136943  0.90620014  0.86536062     0.30400
H2115       H  0.44697987  0.96725761  0.95947255     0.30500
H2116       H  0.53201734  0.83556794  0.95491862     0.30700
C2117       C  0.34717717  0.86111833  0.63777486     0.86200
C2118       C  0.35926822  0.85561382  0.60672038    -0.54100
C2119       C  0.38440007  0.88185801  0.59434536     0.09100
C2120       C  0.39624950  0.91182665  0.61553229     0.20100
C2121       C  0.39489552  0.86610716  0.65196663    -0.54800
C2122       C  0.42087983  0.89344302  0.64131933     0.09200
C2123       C  0.32413074  0.89718343  0.63962208    -0.54300
C2124       C  0.34858076  0.92355201  0.62755170     0.09800
H2125       H  0.34882156  0.83198748  0.59565786     0.14300
H2126       H  0.41539418  0.93389099  0.60589797     0.00000
H2127       H  0.40728266  0.85048437  0.66954236     0.14600
H2128       H  0.29008651  0.90147107  0.64919350     0.14400
C2129       C  0.41605946  0.87226957  0.50469671    -0.05800
C2130       C  0.44617106  0.89124438  0.52238554    -0.33200
C2131       C  0.43622902  0.89569495  0.55130924     0.36100
C2132       C  0.39582150  0.88036236  0.56322203    -0.06100
C2133       C  0.36544399  0.86196409  0.54489419    -0.33100
C2134       C  0.37537626  0.85778006  0.51615144     0.36000
H2135       H  0.47666439  0.90388101  0.51347678     0.16300
O2136       O  0.46635607  0.91507017  0.56743337    -0.60600
H2137       H  0.33275792  0.85144147  0.55254594     0.16300
O2138       O  0.34375578  0.83970093  0.99946332    -0.60700
H2139       H  0.35586099  0.81720329  0.49647449     0.43300
H2140       H  0.45991235  0.93987480  0.56235933     0.43300
C2141       C  0.27316201  0.70515306  0.90164279    -0.05800
C2142       C  0.26018018  0.73450212  0.91799461    -0.33200
C2143       C  0.29126958  0.76249892  0.92198430     0.36100
C2144       C  0.33665458  0.76099405  0.91063250    -0.06100
C2145       C  0.35124953  0.73060651  0.89682907    -0.33100
C2146       C  0.32006688  0.70318386  0.89186243     0.36000
H2147       H  0.22517767  0.73758307  0.92601623     0.16300
O2148       O  0.27627008  0.79207684  0.93578586    -0.60600
H2149       H  0.38558134  0.72956445  0.88719338     0.16300
O2150       O  0.33456135  0.67605416  0.87491900    -0.60700
H2151       H  0.35783547  0.66279209  0.88628586     0.43300
H2152       H  0.25834592  0.80567701  0.92151696     0.43300
C2153       C  0.24529051  0.57935729  0.88310245    -0.05800
C2154       C  0.25586887  0.56454751  0.85684016    -0.33200
C2155       C  0.28617682  0.53575724  0.85519109     0.36100
C2156       C  0.30561618  0.52152534  0.88018933    -0.06100
C2157       C  0.29041716  0.53418299  0.90647860    -0.33100
C2158       C  0.26090581  0.56310293  0.90804518     0.36000
H2159       H  0.24365515  0.57693014  0.83754255     0.16300
O2160       O  0.29689863  0.52209115  0.82918056    -0.60600
H2161       H  0.30357573  0.52309515  0.92604311     0.16300
O2162       O  0.24894151  0.57637534  0.93402877    -0.60700
H2163       H  0.27786794  0.58700257  0.94171618     0.43300
H2164       H  0.31857070  0.53917170  0.82040557     0.43300
C2165       C  0.19392271  0.65588529  0.81625433    -0.05800
C2166       C  0.22929128  0.66723767  0.79764173    -0.33200
C2167       C  0.22099381  0.67068930  0.76858856     0.36100
C2168       C  0.17661690  0.66328597  0.75752565    -0.06100
C2169       C  0.14164311  0.65088592  0.77563712    -0.33100
C2170       C  0.15009832  0.64661139  0.80469345     0.36000
H2171       H  0.26388844  0.67316516  0.80556067     0.16300
O2172       O  0.25690042  0.68020649  0.75102105    -0.60600
H2173       H  0.10787057  0.64369245  0.76708507     0.16300
O2174       O  0.11463165  0.63460138  0.82153582    -0.60700
H2175       H  0.11260788  0.60908676  0.81770525     0.43300
H2176       H  0.25744538  0.70619735  0.75152114     0.43300
C2177       C  0.25208731  0.77857429  0.66332239    -0.05800
C2178       C  0.23739803  0.80536865  0.64526664    -0.33200
C2179       C  0.26833323  0.83131394  0.63677684     0.36100
C2180       C  0.31411329  0.83274509  0.64827445    -0.06100
C2181       C  0.32770662  0.80678074  0.66789582    -0.33100
C2182       C  0.29725728  0.77943769  0.67494791     0.36000
H2183       H  0.20322233  0.80424863  0.63537537     0.16300
O2184       O  0.25388280  0.85460004  0.61635148    -0.60600
H2185       H  0.36245632  0.80604629  0.67671006     0.16300
O2186       O  0.31278239  0.75257169  0.69187291    -0.60700
H2187       H  0.30846647  0.76105547  0.71149850     0.43300
H2188       H  0.25835009  0.84223170  0.59812023     0.43300
C2189       C  0.26222398  0.51474482  0.62616339    -0.05800
C2190       C  0.28114584  0.50279348  0.65195628    -0.33200
C2191       C  0.31446492  0.97593156  0.65150401     0.36100
C2192       C  0.32763580  0.95909370  0.62629923    -0.06100
C2193       C  0.31118219  0.97230968  0.60046132    -0.33100
C2194       C  0.28037724  0.00113042  0.59966339     0.36000
H2195       H  0.27069214  0.51457713  0.67179040     0.16300
O2196       O  0.32995768  0.96362203  0.67715402    -0.60600
H2197       H  0.32008652  0.95901220  0.58096283     0.16300
O2198       O  0.26383574  0.01234644  0.57398199    -0.60700
H2199       H  0.28701351  0.02973155  0.56726305     0.43300
H2200       H  0.30107474  0.44961577  0.68696099     0.43300
C2201       C  0.10613008  0.64392612  0.93698690    -0.05800
C2202       C  0.09394646  0.61317279  0.95241615    -0.33200
C2203       C  0.09926519  0.61161757  0.48109283     0.36100
C2204       C  0.11119210  0.64129181  0.49678363    -0.06100
C2205       C  0.11689215  0.67314309  0.48241907    -0.33100
C2206       C  0.11335153  0.67471843  0.95373083     0.36000
H2207       H  0.07898383  0.59050857  0.94252002     0.16300
O2208       O  0.08880472  0.58066086  0.49442875    -0.60600
H2209       H  0.12274620  0.69696625  0.49435270     0.16300
O2210       O  0.11037475  0.70780259  0.94203460    -0.60700
H2211       H  0.13382327  0.72283891  0.95158904     0.43300
H2212       H  0.11786275  0.56647875  0.49342060     0.43300
C2213       C  0.46820893  0.91090862  0.68617747    -0.05800
C2214       C  0.42598586  0.91260350  0.70175886    -0.33200
C2215       C  0.42592726  0.91665099  0.73119180     0.36100
C2216       C  0.46824649  0.91990721  0.74598339    -0.06100
C2217       C  0.51001709  0.92167819  0.73072483    -0.33100
C2218       C  0.51029378  0.91805350  0.70118254     0.36000
H2219       H  0.39240631  0.91060084  0.69156159     0.16300
O2220       O  0.38422830  0.91583921  0.74544803    -0.60600
H2221       H  0.54285693  0.92480848  0.74184800     0.16300
O2222       O  0.55234031  0.91911837  0.68728012    -0.60700
H2223       H  0.56936355  0.39631959  0.69381910     0.43300
H2224       H  0.37915101  0.89079113  0.75020876     0.43300
C2225       C  0.04778827  0.54310771  0.87515922    -0.05800
C2226       C  0.09123968  0.54481966  0.88864725    -0.33200
C2227       C  0.11125906  0.57704035  0.89634122     0.36100
C2228       C  0.08770131  0.60942915  0.89092939    -0.06100
C2229       C  0.04549950  0.60731301  0.87520716    -0.33100
C2230       C  0.02563675  0.57482736  0.86761654     0.36000
H2231       H  0.10791366  0.02106870  0.89401073     0.16300
O2232       O  0.15260022  0.57664089  0.91110976    -0.60600
H2233       H  0.02617655  0.63065526  0.86949846     0.16300
O2234       O  0.98258497  0.57449453  0.85489211    -0.60700
H2235       H  0.98907982  0.57419052  0.83431493     0.43300
H2236       H  0.14840830  0.56051502  0.92739065     0.43300
C2237       C  0.02697264  0.74249489  0.88975202    -0.05800
C2238       C  0.06249885  0.73286377  0.87094799    -0.33200
C2239       C  0.08579109  0.70083923  0.87311312     0.36100
C2240       C  0.07392943  0.67643826  0.89448945    -0.06100
C2241       C  0.03229718  0.68355401  0.90987669    -0.33100
C2242       C  0.00973044  0.71647518  0.90820696     0.36000
H2243       H  0.07408021  0.75081501  0.85464973     0.16300
O2244       O  0.11901442  0.69356807  0.85330780    -0.60600
H2245       H  0.01949130  0.66461913  0.92507516     0.16300
O2246       O  0.97231621  0.72317953  0.92546052    -0.60700
H2247       H  0.94508466  0.71259432  0.91573747     0.43300
H2248       H  0.14206326  0.71291029  0.85437443     0.43300
C2249       C  0.91153454  0.90887779  0.74008800    -0.05800
C2250       C  0.90092284  0.93995436  0.72574717    -0.33200
C2251       C  0.88965273  0.93963738  0.69685814     0.36100
C2252       C  0.88941059  0.90758350  0.68141145    -0.06100
C2253       C  0.90305033  0.87687663  0.69564361    -0.33100
C2254       C  0.91415209  0.87733991  0.72450162     0.36000
H2255       H  0.89981074  0.96456819  0.73714626     0.16300
O2256       O  0.88076105  0.97117479  0.68390276    -0.60600
H2257       H  0.90427341  0.85204176  0.68467447     0.16300
O2258       O  0.92741193  0.84658133  0.73732177    -0.60700
H2259       H  0.96201149  0.84623350  0.73621993     0.43300
H2260       H  0.85075964  0.97959417  0.69193588     0.43300
C2261       C  0.77506346  0.59086638  0.84181001    -0.05800
C2262       C  0.76209345  0.56185998  0.82506183    -0.33200
C2263       C  0.79269251  0.53356437  0.82126364     0.36100
C2264       C  0.83724361  0.53422025  0.83358662    -0.06100
C2265       C  0.85181197  0.56388169  0.84829816    -0.33100
C2266       C  0.82106972  0.59168305  0.85303344     0.36000
H2267       H  0.72703933  0.55907177  0.81695856     0.16300
O2268       O  0.77687660  0.00304053  0.80850960    -0.60600
H2269       H  0.88534788  0.56381782  0.85898353     0.16300
O2270       O  0.83458662  0.61746501  0.87149958    -0.60700
H2271       H  0.85847988  0.63133363  0.86125751     0.43300
H2272       H  0.75967204  0.98943504  0.82301910     0.43300
C2273       C  0.80473043  0.77040825  0.87266591    -0.05800
C2274       C  0.78107630  0.76297498  0.84720733    -0.33200
C2275       C  0.74992294  0.73500499  0.84533215     0.36100
C2276       C  0.74084221  0.71431301  0.86920551    -0.06100
C2277       C  0.76009453  0.72384544  0.89532921    -0.33100
C2278       C  0.79233354  0.75139730  0.89719608     0.36000
H2279       H  0.78844298  0.77761313  0.82809345     0.16300
O2280       O  0.73066064  0.72659818  0.81964012    -0.60600
H2281       H  0.75328136  0.70805854  0.91386499     0.16300
O2282       O  0.81280745  0.75833858  0.92279250    -0.60700
H2283       H  0.83922060  0.74152888  0.92432019     0.43300
H2284       H  0.75603612  0.71501718  0.80882736     0.43300
C2285       C  0.52640731  0.50214202  0.62255841    -0.05800
C2286       C  0.48344981  0.50051548  0.63649649    -0.33200
C2287       C  0.46542286  0.96873315  0.64442871     0.36100
C2288       C  0.48927748  0.93635007  0.63995106    -0.06100
C2289       C  0.53253253  0.93806498  0.62554578    -0.33100
C2290       C  0.55009611  0.47046988  0.61688720     0.36000
H2291       H  0.46465932  0.52451496  0.64126076     0.16300
O2292       O  0.42346885  0.96960233  0.65830999    -0.60600
H2293       H  0.55331608  0.91473027  0.62235909     0.16300
O2294       O  0.59305650  0.47097925  0.60413710    -0.60700
H2295       H  0.58921833  0.96599967  0.58403063     0.43300
H2296       H  0.43023605  0.48105063  0.67836184     0.43300
C2297       C  0.53854673  0.79972849  0.63522589    -0.05800
C2298       C  0.53339263  0.81061977  0.66320412    -0.33200
C2299       C  0.51194296  0.84259464  0.67004939     0.36100
C2300       C  0.49891342  0.86736150  0.64847016    -0.06100
C2301       C  0.50531710  0.85594897  0.62025685    -0.33100
C2302       C  0.52416604  0.82277529  0.61359644     0.36000
H2303       H  0.54307278  0.79295788  0.68023335     0.16300
O2304       O  0.50113182  0.84725316  0.69798655    -0.60600
H2305       H  0.49384695  0.87247692  0.60308847     0.16300
O2306       O  0.52790941  0.81306080  0.58579588    -0.60700
H2307       H  0.55681370  0.82447832  0.57888329     0.43300
H2308       H  0.47104560  0.83496135  0.70087609     0.43300
C2309       C  0.68580468  0.63006699  0.92570564    -0.05800
C2310       C  0.64267700  0.61880922  0.93643870    -0.33200
C2311       C  0.63548585  0.61623898  0.96582033     0.36100
C2312       C  0.67183137  0.62504007  0.98470507    -0.06100
C2313       C  0.71504386  0.63565239  0.97367919    -0.33100
C2314       C  0.72242599  0.63749503  0.94457004     0.36000
H2315       H  0.61476813  0.61176715  0.92206418     0.16300
O2316       O  0.59270879  0.60593409  0.97581805    -0.60600
H2317       H  0.74347122  0.64250447  0.98776290     0.16300
O2318       O  0.76562154  0.64694704  0.93467072    -0.60700
H2319       H  0.78521793  0.62554527  0.93637260     0.43300
H2320       H  0.57245007  0.62700799  0.97431327     0.43300
C2321       C  0.74012297  0.50887133  0.58454415    -0.05800
C2322       C  0.72596232  0.47873366  0.59884396    -0.33200
C2323       C  0.75688752  0.95062362  0.60451423     0.36100
C2324       C  0.80405951  0.95303686  0.59546326    -0.06100
C2325       C  0.81758723  0.48358972  0.57892943    -0.33100
C2326       C  0.78582882  0.51095104  0.57395783     0.36000
H2327       H  0.69137086  0.47755885  0.60808836     0.16300
O2328       O  0.74247291  0.92340478  0.62137943    -0.60600
H2329       H  0.85265783  0.48714672  0.57126235     0.16300
O2330       O  0.80068625  0.54082641  0.56051583    -0.60700
H2331       H  0.81640295  0.55490825  0.57533540     0.43300
H2332       H  0.72109897  0.90931582  0.60944321     0.43300
C2333       C  0.77339619  0.77160451  0.61524355    -0.05800
C2334       C  0.77923057  0.79132142  0.64007007    -0.33200
C2335       C  0.81016503  0.81961495  0.64087129     0.36100
C2336       C  0.83605452  0.82843445  0.61668146    -0.06100
C2337       C  0.83327721  0.80733992  0.59264402    -0.33100
C2338       C  0.80236971  0.77908128  0.59170076     0.36000
H2339       H  0.75799560  0.78611767  0.65853005     0.16300
O2340       O  0.81061627  0.84103736  0.66414085    -0.60600
H2341       H  0.85257342  0.81440222  0.57378074     0.16300
O2342       O  0.79974362  0.75991320  0.56724260    -0.60700
H2343       H  0.77829911  0.77329935  0.55471128     0.43300
H2344       H  0.82442536  0.82672905  0.67956805     0.43300
C2345       C  0.58133221  0.61410227  0.84026392    -0.05800
C2346       C  0.53898183  0.61207701  0.85572641    -0.33200
C2347       C  0.51838574  0.57945488  0.86262810     0.36100
C2348       C  0.53931939  0.54790908  0.85372616    -0.06100
C2349       C  0.57737532  0.54968474  0.83566550    -0.33100
C2350       C  0.59566796  0.58192455  0.82723161     0.36000
H2351       H  0.51971300  0.63538381  0.86116446     0.16300
O2352       O  0.47704907  0.57872335  0.87723515    -0.60600
H2353       H  0.59085233  0.52586536  0.82615000     0.16300
O2354       O  0.62308627  0.58151174  0.80357135    -0.60700
H2355       H  0.60108518  0.58076413  0.78736136     0.43300
H2356       H  0.48565969  0.58304535  0.89723001     0.43300
C2357       C  0.59083045  0.68508614  0.84696244    -0.05800
C2358       C  0.60315046  0.71625325  0.83225600    -0.33200
C2359       C  0.58612144  0.74921088  0.83951888     0.36100
C2360       C  0.55622791  0.75327318  0.86285139    -0.06100
C2361       C  0.54930753  0.72384587  0.88041425    -0.33100
C2362       C  0.56841499  0.69052280  0.87350427     0.36000
H2363       H  0.62659625  0.71579092  0.81444844     0.16300
O2364       O  0.59906109  0.77731361  0.82315908    -0.60600
H2365       H  0.52949420  0.72662002  0.89977071     0.16300
O2366       O  0.56724676  0.66442768  0.89350315    -0.60700
H2367       H  0.58423332  0.67365422  0.91018022     0.43300
H2368       H  0.62656586  0.78751729  0.83286039     0.43300
C2369       C  0.60982375  0.65393891  0.80210739    -0.05800
C2370       C  0.65096086  0.66098188  0.78650567    -0.33200
C2371       C  0.64984332  0.66556591  0.75715324     0.36100
C2372       C  0.60738007  0.66304728  0.74242887    -0.06100
C2373       C  0.56600036  0.65843446  0.75765659    -0.33100
C2374       C  0.56672885  0.65499939  0.78712508     0.36000
H2375       H  0.68417107  0.66459211  0.79689899     0.16300
O2376       O  0.69088595  0.67103209  0.74291012    -0.60600
H2377       H  0.53277854  0.65777761  0.74665012     0.16300
O2378       O  0.52493586  0.65378518  0.80126890    -0.60700
H2379       H  0.51164527  0.63038289  0.79703639     0.43300
H2380       H  0.69642117  0.69665067  0.74406560     0.43300
C2381       C  0.00112137  0.86701884  0.60359670    -0.05800
C2382       C  0.00432322  0.85687856  0.63242313    -0.33200
C2383       C  0.02483545  0.82446609  0.64077462     0.36100
C2384       C  0.04528042  0.80225241  0.62038546    -0.06100
C2385       C  0.04913016  0.81526976  0.59275330    -0.33100
C2386       C  0.02956538  0.84729806  0.58455942     0.36000
H2387       H  0.98972970  0.87370266  0.64858373     0.16300
O2388       O  0.02298599  0.81437020  0.66856237    -0.60600
H2389       H  0.06833874  0.80061956  0.57695237     0.16300
O2390       O  0.03975495  0.85899857  0.55780219    -0.60700
H2391       H  0.07366934  0.86425676  0.55781488     0.43300
H2392       H  0.04907636  0.82690594  0.67789188     0.43300
C2393       C  0.00192711  0.93284047  0.60268769    -0.05800
C2394       C  0.04416573  0.94033203  0.58827120    -0.33200
C2395       C  0.06570964  0.97343468  0.59028775     0.36100
C2396       C  0.04699009  0.99925786  0.60838071    -0.06100
C2397       C  0.01036428  0.98950939  0.62627612    -0.33100
C2398       C  0.98832659  0.95710233  0.62382753     0.36000
H2399       H  0.05786474  0.92199387  0.57303105     0.16300
O2400       O  0.10324799  0.98065793  0.57330425    -0.60600
H2401       H  0.99686896  0.50960350  0.64196595     0.16300
O2402       O  0.95448139  0.94949993  0.64309189    -0.60700
H2403       H  0.92953678  0.96712323  0.63964650     0.43300
H2404       H  0.13109818  0.97465713  0.58485031     0.43300
C2405       C  0.96321984  0.89910025  0.56118327    -0.05800
C2406       C  0.94492972  0.86807922  0.54891127    -0.33200
C2407       C  0.94258236  0.86494364  0.02018539     0.36100
C2408       C  0.95558233  0.89254831  0.00201346    -0.06100
C2409       C  0.96708113  0.92494321  0.01421541    -0.33100
C2410       C  0.96902338  0.92832765  0.54278236     0.36000
H2411       H  0.93552316  0.84619609  0.56236392     0.16300
O2412       O  0.92731252  0.83357726  0.00958566    -0.60600
H2413       H  0.97306028  0.94771428  0.00099897     0.16300
O2414       O  0.97247444  0.96198607  0.55293786    -0.60700
H2415       H  0.99983287  0.97276436  0.54347254     0.43300
H2416       H  0.95561722  0.81858223  0.00843387     0.43300
loop_ 
_geom_bond_atom_site_label_1 
_geom_bond_atom_site_label_2 
_geom_bond_distance 
_geom_bond_site_symmetry_2 
_ccdc_geom_bond_type 
C1          C152   1.572       .  S
C1          C569   1.577   1_655  S
C1          C581   1.565   1_655  S
C1          C593   1.572       .  S
C2           C74   1.568       .  S
C2          C533   1.586       .  S
C2          C545   1.587       .  S
C2          C557   1.566       .  S
Zr3           O4   2.440       .  S
Zr3           O5   2.447       .  S
Zr3           O6   2.461       .  S
Zr3           O9   2.457       .  S
Zr3          O11   2.384       .  S
Zr3          O12   2.387       .  S
Zr3          O13   2.416       .  S
Zr3          O14   2.422       .  S
O4           H60   0.990       .  S
O4           H68   0.990       .  S
O5           C25   1.286       .  A
O6           C27   1.289       .  A
O7          Zr17   2.448       .  S
O7           C26   1.287       .  A
O8          Zr16   2.413       .  S
O8           C27   1.282       .  A
O9           C26   1.288       .  A
O10         Zr18   2.392       .  S
O10          C25   1.276       .  A
O11         Zr16   2.388       .  S
O11         Zr18   2.377       .  S
O12         Zr17   2.387       .  S
O12         Zr18   2.370       .  S
O12          H47   0.966       .  S
O13         Zr16   2.395       .  S
O13         Zr33   2.393       .  S
O13          H50   0.965       .  S
O14         Zr17   2.387       .  S
O14         Zr33   2.419       .  S
Zr15         O40   2.443       .  S
Zr15         O34   2.451       .  S
Zr15         O42   2.453       .  S
Zr15         O30   2.452       .  S
Zr15         O21   2.403       .  S
Zr15         O22   2.409       .  S
Zr15         O23   2.379       .  S
Zr15         O24   2.394       .  S
Zr16         O35   2.436       .  S
Zr16         O28   2.435       .  S
Zr16         O29   2.413       .  S
Zr16         O22   2.393       .  S
Zr16         O23   2.389       .  S
Zr17         O19   2.434       .  S
Zr17         O41   2.438       .  S
Zr17         O43   2.423       .  S
Zr17         O21   2.396       .  S
Zr17         O24   2.400       .  S
Zr18         O44   2.437       .  S
Zr18         O45   2.437       .  S
Zr18         O20   2.439       .  S
Zr18         O21   2.386       .  S
Zr18         O22   2.369       .  S
O19          H56   0.990       .  S
O20          H51   0.990       .  S
O20          H65   0.990       .  S
O22          H48   0.964       .  S
O23         Zr33   2.374       .  S
O24         Zr33   2.385       .  S
O24          H49   0.965       .  S
C25         C509   1.461       .  S
C26         C473   1.495       .  S
C27        C1104   1.478   1_554  S
O28          H64   0.990       .  S
O29          C31   1.281       .  A
O30          C31   1.289       .  A
C31         C521   1.487       .  S
O32         Zr33   2.439       .  S
O32          H61   0.990       .  S
Zr33         O36   2.439       .  S
Zr33         O37   2.439       .  S
Zr33         O38   2.443       .  S
O34          C39   1.287       .  A
O35          H52   0.990       .  S
O35          H67   0.990       .  S
O36          H53   0.990       .  S
O37          H57   0.990       .  S
O37          H66   0.990       .  S
O38          C39   1.285       .  A
C39         C485   1.495       .  S
O40          H59   0.990       .  S
O40          H63   0.991       .  S
O41          H55   0.990       .  S
O41          H62   0.990       .  S
O42          C46   1.286       .  A
O43          C46   1.283       .  A
O44          H54   0.990       .  S
O45          H58   0.990       .  S
C46         C560   1.479       .  S
C69          C70   1.526       .  S
C69          C75   1.525       .  S
C69          C73   1.531       .  S
C69         C449   1.526       .  S
C70          H77   1.087       .  S
C70          C71   1.357       .  D
C71          C72   1.545       .  S
C71         C497   1.477       .  S
C72          C76   1.538       .  S
C72          C74   1.566       .  S
C72          H78   1.104       .  S
C73          H79   1.066       .  S
C73          C74   1.383       .  D
C75          H80   1.086       .  S
C75          C76   1.357       .  D
C76         C464   1.471       .  S
Zr81         O82   2.439   1_655  S
Zr81         O83   2.432       .  S
Zr81         O84   2.469       .  S
Zr81         O87   2.456   1_655  S
Zr81         O89   2.388       .  S
Zr81         O90   2.386       .  S
Zr81         O91   2.405       .  S
Zr81         O92   2.413   1_655  S
O82         H138   0.990   1_455  S
O82         H146   0.990       .  S
O83         C103   1.283       .  A
O84         C105   1.292       .  A
O85         Zr95   2.446   1_455  S
O85         C104   1.287       .  A
O86         Zr94   2.396       .  S
O86         C105   1.278       .  A
O87         C104   1.288       .  A
O88         Zr96   2.402       .  S
O88         C103   1.278       .  A
O89         Zr94   2.392       .  S
O89         Zr96   2.380       .  S
O90         Zr95   2.384       .  S
O90         Zr96   2.366       .  S
O90         H125   0.966       .  S
O91         Zr94   2.395       .  S
O91        Zr111   2.390   1_655  S
O91         H128   0.965       .  S
O92         Zr95   2.375   1_455  S
O92        Zr111   2.397       .  S
Zr93        O118   2.443       .  S
Zr93        O112   2.463       .  S
Zr93        O120   2.473       .  S
Zr93        O108   2.461       .  S
Zr93         O99   2.408       .  S
Zr93        O100   2.414       .  S
Zr93        O101   2.381       .  S
Zr93        O102   2.402   1_655  S
Zr94        O113   2.435       .  S
Zr94        O106   2.435       .  S
Zr94        O107   2.411       .  S
Zr94        O100   2.395       .  S
Zr94        O101   2.375       .  S
Zr95         O97   2.436   1_655  S
Zr95        O119   2.438       .  S
Zr95        O121   2.400       .  S
Zr95         O99   2.398       .  S
Zr95        O102   2.397   1_655  S
Zr96        O122   2.438       .  S
Zr96        O123   2.434       .  S
Zr96         O98   2.437       .  S
Zr96         O99   2.383       .  S
Zr96        O100   2.375       .  S
O97         H134   0.990       .  S
O98         H129   0.990       .  S
O98         H143   0.990       .  S
O100        H126   0.962       .  S
O101       Zr111   2.380   1_655  S
O102       Zr111   2.381       .  S
O102        H127   0.965       .  S
C103       C1660   1.459       .  S
C104       C1621   1.494       .  S
C105        C437   1.480       .  S
O106        H142   0.990       .  S
O107        C109   1.282       .  A
O108        C109   1.289       .  A
C109        C461   1.490       .  S
O110       Zr111   2.438       .  S
O110        H139   0.990       .  S
Zr111       O114   2.437       .  S
Zr111       O115   2.444       .  S
Zr111       O116   2.406       .  S
O112        C117   1.287   1_655  A
O113        H130   0.990       .  S
O113        H145   0.990       .  S
O114        H131   0.990       .  S
O115        H135   0.990       .  S
O115        H144   0.990       .  S
O116        C117   1.281       .  A
C117        C425   1.495       .  S
O118        H137   0.990       .  S
O118        H141   0.990       .  S
O119        H133   0.990   1_655  S
O119        H140   0.990       .  S
O120        C124   1.290       .  A
O121        C124   1.281       .  A
O122        H132   0.990       .  S
O123        H136   0.990       .  S
C124        C596   1.493       .  S
C147        C148   1.531       .  S
C147        C153   1.520       .  S
C147        C151   1.541       .  S
C147        C512   1.536       .  S
C148        H155   1.083       .  S
C148        C149   1.367       .  D
C149        C150   1.557       .  S
C149        C440   1.503       .  S
C150        C154   1.538       .  S
C150        C152   1.561       .  S
C150        H156   1.098       .  S
C151        H157   1.076       .  S
C151        C152   1.385       .  D
C153        H158   1.087       .  S
C153        C154   1.355       .  D
C154        C524   1.469       .  S
C159        C310   1.557       .  S
C159        C401   1.565       .  S
C159        C476   1.566       .  S
C159        C488   1.580       .  S
C160        C232   1.587       .  S
C160        C389   1.591       .  S
C160        C416   1.581       .  S
C160        C428   1.570       .  S
Zr161       O162   2.438       .  S
Zr161       O163   2.431       .  S
Zr161       O164   2.465       .  S
Zr161       O167   2.484       .  S
Zr161       O169   2.388       .  S
Zr161       O170   2.389       .  S
Zr161       O171   2.412       .  S
Zr161       O172   2.412       .  S
O162        H218   0.990       .  S
O162        H226   0.991       .  S
O163        C183   1.282       .  A
O164        C185   1.291       .  A
O165       Zr175   2.428       .  S
O165        C184   1.286       .  A
O166       Zr174   2.399       .  S
O166        C185   1.279       .  A
O167        C184   1.293       .  A
O168       Zr176   2.412       .  S
O168        C183   1.275       .  A
O169       Zr174   2.379       .  S
O169       Zr176   2.370       .  S
O170       Zr175   2.380       .  S
O170       Zr176   2.371       .  S
O170        H205   0.966       .  S
O171       Zr174   2.405       .  S
O171       Zr191   2.391       .  S
O171        H208   0.966       .  S
O172       Zr175   2.385       .  S
O172       Zr191   2.398       .  S
Zr173       O198   2.440       .  S
Zr173       O192   2.453       .  S
Zr173       O200   2.455       .  S
Zr173       O188   2.464       .  S
Zr173       O179   2.408       .  S
Zr173       O180   2.409       .  S
Zr173       O181   2.374       .  S
Zr173       O182   2.397       .  S
Zr174       O193   2.436       .  S
Zr174       O186   2.434       .  S
Zr174       O187   2.418       .  S
Zr174       O180   2.398       .  S
Zr174       O181   2.376       .  S
Zr175       O177   2.435       .  S
Zr175       O199   2.438       .  S
Zr175       O201   2.406       .  S
Zr175       O179   2.393       .  S
Zr175       O182   2.396       .  S
Zr176       O202   2.439       .  S
Zr176       O203   2.434       .  S
Zr176       O178   2.435       .  S
Zr176       O179   2.392       .  S
Zr176       O180   2.380       .  S
O177        H214   0.990       .  S
O178        H209   0.990       .  S
O178        H223   0.990       .  S
O180        H206   0.965       .  S
O181       Zr191   2.377       .  S
O182       Zr191   2.379       .  S
O182        H207   0.965       .  S
C183        C365   1.459       .  S
C184        C572   1.505       .  S
C185        C356   1.465       .  S
O186        H222   0.990       .  S
O187        C189   1.283       .  A
O188        C189   1.289       .  A
C189        C377   1.494       .  S
O190       Zr191   2.439   1_655  S
O190        H219   0.990       .  S
Zr191       O194   2.439       .  S
Zr191       O195   2.443   1_455  S
Zr191       O196   2.407       .  S
O192        C197   1.286       .  A
O193        H210   0.990       .  S
O193        H225   0.990       .  S
O194        H211   0.990       .  S
O195        H215   0.990       .  S
O195        H224   0.989       .  S
O196        C197   1.281       .  A
C197       C1792   1.492   1_545  S
O198        H217   0.990       .  S
O198        H221   0.990       .  S
O199        H213   0.990       .  S
O199        H220   0.990       .  S
O200        C204   1.289       .  A
O201        C204   1.281       .  A
O202        H212   0.990       .  S
O203        H216   0.990       .  S
C204        C392   1.481   1_554  S
C227        C228   1.526       .  S
C227        C233   1.521       .  S
C227        C231   1.542       .  S
C227        C329   1.538       .  S
C228        H235   1.086       .  S
C228        C229   1.363       .  D
C229        C230   1.547       .  S
C229        C353   1.496       .  S
C230        C234   1.537       .  S
C230        C232   1.571       .  S
C230        H236   1.104       .  S
C231        H237   1.057       .  S
C231        C232   1.385       .  D
C233        H238   1.086       .  S
C233        C234   1.358       .  D
C234        C341   1.467       .  S
Zr239       O240   2.437       .  S
Zr239       O241   2.456       .  S
Zr239       O242   2.473       .  S
Zr239       O245   2.462       .  S
Zr239       O247   2.384       .  S
Zr239       O248   2.388       .  S
Zr239       O249   2.414       .  S
Zr239       O250   2.426       .  S
O240        H296   0.990       .  S
O240        H304   0.990       .  S
O241        C261   1.288       .  A
O242        C263   1.291       .  A
O243       Zr253   2.433       .  S
O243        C262   1.286       .  A
O244       Zr252   2.415       .  S
O244        C263   1.280       .  A
O245        C262   1.290       .  A
O246       Zr254   2.400       .  S
O246        C261   1.277       .  A
O247       Zr252   2.387       .  S
O247       Zr254   2.384       .  S
O248       Zr253   2.389       .  S
O248       Zr254   2.363       .  S
O248        H283   0.965       .  S
O249       Zr252   2.397       .  S
O249       Zr269   2.399       .  S
O249        H286   0.965       .  S
O250       Zr253   2.390       .  S
O250       Zr269   2.409       .  S
Zr251       O276   2.442       .  S
Zr251       O278   2.451       .  S
Zr251      O1478   2.441       .  S
Zr251      O1474   2.438       .  S
Zr251       O257   2.403       .  S
Zr251       O258   2.409       .  S
Zr251       O259   2.381       .  S
Zr251       O260   2.392       .  S
Zr252       O271   2.435       .  S
Zr252       O264   2.436       .  S
Zr252       O265   2.406       .  S
Zr252       O258   2.399       .  S
Zr252       O259   2.389       .  S
Zr253       O255   2.435       .  S
Zr253       O277   2.438       .  S
Zr253       O279   2.420       .  S
Zr253       O257   2.394       .  S
Zr253       O260   2.399       .  S
Zr254       O280   2.438       .  S
Zr254       O281   2.438       .  S
Zr254       O256   2.438       .  S
Zr254       O257   2.389       .  S
Zr254       O258   2.372       .  S
O255        H292   0.990       .  S
O256        H287   0.991       .  S
O256        H301   0.990       .  S
O258        H284   0.963       .  S
O259       Zr269   2.379       .  S
O260       Zr269   2.378       .  S
O260        H285   0.965       .  S
C261        C332   1.469       .  S
C262        C548   1.503       .  S
C263        C921   1.477       .  S
O264        H300   0.990       .  S
O265       C1475   1.281       .  A
O266      Zr1459   2.443       .  S
O266        C267   1.286       .  A
C267       O1473   1.282       .  A
C267        C344   1.477   1_565  S
O268       Zr269   2.440       .  S
O268        H297   0.991       .  S
Zr269       O272   2.437       .  S
Zr269       O273   2.441       .  S
Zr269       O274   2.434       .  S
O270      Zr1459   2.443   1_545  S
O270        C275   1.283       .  A
O271        H288   0.990       .  S
O271        H303   0.990       .  S
O272        H289   0.990       .  S
O273        H293   0.990       .  S
O273        H302   0.989       .  S
O274       C1483   1.283       .  A
C275       O1482   1.284   1_545  A
C275        C536   1.478       .  S
O276        H295   0.990       .  S
O276        H299   0.991       .  S
O277        H291   0.990       .  S
O277        H298   0.990       .  S
O278        C282   1.285       .  A
O279        C282   1.281       .  A
O280        H290   0.990       .  S
O281        H294   0.990       .  S
C282        C404   1.476       .  S
C305        C306   1.524       .  S
C305        C311   1.526       .  S
C305        C309   1.533       .  S
C305        C368   1.522       .  S
C306        H313   1.085       .  S
C306        C307   1.365       .  D
C307        C308   1.559       .  S
C307        C320   1.509       .  S
C308        C312   1.544       .  S
C308        C310   1.569       .  S
C308        H314   1.104       .  S
C309        H315   1.080       .  S
C309        C310   1.378       .  D
C311        H316   1.087       .  S
C311        C312   1.354       .  D
C312        C380   1.482       .  S
C317        C867   1.475   1_554  S
C317        C318   1.404       .  A
C317        C322   1.401       .  A
C318        C319   1.408       .  A
C318        H323   1.084       .  S
C319        C320   1.414       .  A
C319        O324   1.370       .  S
C320        C321   1.416       .  A
C321        C322   1.400       .  A
C321        H325   1.082       .  S
C322        O930   1.372       .  S
O324        H328   0.992       .  S
O326        C926   1.372       .  S
O326        H931   0.992       .  S
H327        O930   0.992   1_556  S
C329        C330   1.412       .  A
C329        C334   1.422       .  A
C330        C331   1.405       .  A
C330        H335   1.078       .  S
C331        C332   1.407       .  A
C331        O336   1.373       .  S
C332        C333   1.394       .  A
C333        C334   1.398       .  A
C333        H337   1.085       .  S
C334        O338   1.373       .  S
O336        H340   0.992       .  S
O338        H339   0.992       .  S
C341        C342   1.399       .  A
C341        C346   1.404       .  A
C342        C343   1.400       .  A
C342        H347   1.084       .  S
C343        C344   1.413       .  A
C343        O348   1.372       .  S
C344        C345   1.405       .  A
C345        C346   1.391       .  A
C345        H349   1.083       .  S
C346        O350   1.374       .  S
O348        H352   0.992       .  S
O350        H351   0.992       .  S
C353        C354   1.410       .  A
C353        C358   1.414       .  A
C354        C355   1.397       .  A
C354        H359   1.083       .  S
C355        C356   1.402       .  A
C355        O360   1.372       .  S
C356        C357   1.400       .  A
C357        C358   1.403       .  A
C357        H361   1.084       .  S
C358        O362   1.371       .  S
O360        H364   0.992       .  S
O362        H363   0.992       .  S
C365        C366   1.393       .  A
C365        C370   1.406       .  A
C366        C367   1.387       .  A
C366        H371   1.085       .  S
C367        C368   1.419       .  A
C367        O372   1.373       .  S
C368        C369   1.410       .  A
C369        C370   1.402       .  A
C369        H373   1.079       .  S
C370        O374   1.372       .  S
O372        H376   0.992       .  S
O374        H375   0.992       .  S
C377        C378   1.408       .  A
C377       C1590   1.416       .  A
C378       C1587   1.396   1_545  A
C378        H383   1.083       .  S
C379        C380   1.407       .  A
C379       C1586   1.396       .  A
C379        O384   1.373       .  S
C380        C381   1.402       .  A
C381        C382   1.407       .  A
C381        H385   1.084       .  S
C382       C1585   1.416       .  A
C382        O386   1.371       .  S
O384       H1596   0.992       .  S
O386        H387   0.992       .  S
H388       O1592   0.992       .  S
C389        C390   1.425       .  A
C389        C394   1.435       .  A
C390        C995   1.401       .  A
C390        H395   1.073       .  S
C391        C392   1.397       .  A
C391        C994   1.401       .  A
C391        O396   1.372       .  S
C392        C393   1.398       .  A
C393        C998   1.405       .  A
C393        H397   1.084       .  S
C394        C997   1.403       .  A
C394        O398   1.378       .  S
O396        H400   0.992       .  S
O398        H399   0.993       .  S
C401        C402   1.417       .  A
C401        C406   1.424       .  A
C402        C403   1.400       .  A
C402        H407   1.078       .  S
C403        C404   1.403       .  A
C403        O408   1.372       .  S
C404        C405   1.399       .  A
C405        C406   1.404       .  A
C405        H409   1.084       .  S
C406        O410   1.373       .  S
O408        H412   0.992       .  S
O410       H1619   0.992       .  S
H411       O1618   0.992       .  S
C413       C1312   1.493       .  S
C413        C414   1.397       .  A
C413        C418   1.409       .  A
C414        C415   1.404       .  A
C414       H1627   1.084       .  S
C415        C416   1.427       .  A
C415        O420   1.373       .  S
C416        C417   1.422       .  A
C417        C418   1.413       .  A
C417        H421   1.080       .  S
C418        O422   1.371   1_455  S
H419       C1622   1.084       .  S
O420        H424   0.992       .  S
O422        H423   0.992       .  S
C425        C426   1.401       .  A
C425        C430   1.410       .  A
C426        C427   1.394       .  A
C426        H431   1.083       .  S
C427        C428   1.417       .  A
C427        O432   1.365       .  S
C428        C429   1.422       .  A
C429        C430   1.411       .  A
C429        H433   1.083       .  S
C430        O434   1.371   1_455  S
O432        H436   0.993       .  S
O434        H435   0.992       .  S
C437        C438   1.395       .  A
C437        C442   1.414       .  A
C438        C439   1.401       .  A
C438        H443   1.084       .  S
C439        C440   1.424       .  A
C439        O444   1.372       .  S
C440        C441   1.403       .  A
C441        C442   1.400       .  A
C441        H445   1.081       .  S
C442        O446   1.372       .  S
O444        H448   0.992       .  S
O446        H447   0.992       .  S
C449        C450   1.413       .  A
C449        C454   1.419       .  A
C450        C451   1.401       .  A
C450        H455   1.078       .  S
C451        C452   1.403       .  A
C451       O1664   1.372       .  S
C452       C1311   1.456       .  S
C452        C453   1.393       .  A
C453        C454   1.392       .  A
C453        H457   1.085       .  S
C454        O458   1.373       .  S
O456       C1659   1.372       .  S
O456        H460   0.992       .  S
O458        H459   0.992       .  S
C461        C462   1.410       .  A
C461        C466   1.414       .  A
C462        C463   1.394       .  A
C462        H467   1.083       .  S
C463        C464   1.400       .  A
C463        O468   1.373       .  S
C464        C465   1.402       .  A
C465        C466   1.405       .  A
C465        H469   1.081       .  S
C466        O470   1.372       .  S
O468        H472   0.992       .  S
O470        H471   0.992       .  S
C473        C474   1.398       .  A
C473        C478   1.411   1_545  A
C474       C1683   1.401   1_545  A
C474        H479   1.084       .  S
C475        C476   1.425       .  A
C475       C1682   1.399       .  A
C475        O480   1.371       .  S
C476        C477   1.417       .  A
C477       C1686   1.414       .  A
C477        H481   1.079       .  S
C478       C1685   1.414       .  A
C478        O482   1.371       .  S
O480       H1692   0.992       .  S
O482       H1691   0.992       .  S
H483       O1690   0.992       .  S
H484       O1688   0.992       .  S
C485        C486   1.397       .  A
C485        C490   1.408       .  A
C486        C487   1.403       .  A
C486        H491   1.084       .  S
C487        C488   1.436       .  A
C487        O492   1.370       .  S
C488        C489   1.416       .  A
C489        C490   1.409       .  A
C489        H493   1.077       .  S
C490        O494   1.372       .  S
O492        H496   0.992       .  S
O494        H495   0.992       .  S
C497        C498   1.402       .  A
C497        C502   1.406       .  A
C498        C499   1.406       .  A
C498        H503   1.083       .  S
C499        C500   1.412       .  A
C499        O504   1.371       .  S
C500        C631   1.480       .  S
C500        C501   1.404       .  A
C501        C502   1.395       .  A
C501        H505   1.084       .  S
C502        O506   1.372       .  S
O504        H508   0.992       .  S
O506        H507   0.992       .  S
C509        C510   1.396   1_545  A
C509        C514   1.403       .  A
C510       C1719   1.398       .  A
C510        H515   1.084       .  S
C511        C512   1.420       .  A
C511       C1718   1.398       .  A
C511        O516   1.373       .  S
C512       C1721   1.412       .  A
C513        C514   1.400   1_565  A
C513       C1720   1.413       .  A
C513        H517   1.076       .  S
C514        O518   1.373       .  S
O516        H520   0.992       .  S
O518        H519   0.992       .  S
C521        C522   1.406       .  A
C521        C526   1.418       .  A
C522        C523   1.400       .  A
C522        H527   1.083       .  S
C523        C524   1.405       .  A
C523        O528   1.372       .  S
C524        C525   1.397       .  A
C525        C526   1.397       .  A
C525        H529   1.084       .  S
C526        O530   1.372       .  S
O528        H532   0.992       .  S
O530        H531   0.992       .  S
C533        C534   1.418       .  A
C533        C538   1.435       .  A
C534        C535   1.414       .  A
C534        H539   1.074       .  S
C535        C536   1.407       .  A
C535        O540   1.371       .  S
C536        C537   1.386       .  A
C537        C538   1.395       .  A
C537        H541   1.085       .  S
C538        O542   1.370       .  S
O540        H544   0.992       .  S
O542        H543   0.993       .  S
C545        C546   1.421       .  A
C545        C550   1.428       .  A
C546        C547   1.390       .  A
C546        H551   1.079       .  S
C547        C548   1.407       .  A
C547        O552   1.373       .  S
C548        C549   1.410       .  A
C549        C550   1.423       .  A
C549        H553   1.083       .  S
C550        O554   1.372       .  S
O552        H556   0.992       .  S
O554        H555   0.992       .  S
C557        C558   1.418       .  A
C557        C562   1.421       .  A
C558        C559   1.403       .  A
C558        H563   1.079       .  S
C559        C560   1.406       .  A
C559        O564   1.372       .  S
C560        C561   1.398       .  A
C561        C562   1.399       .  A
C561        H565   1.084       .  S
C562        O566   1.372       .  S
O564        H568   0.992       .  S
O566        H567   0.992       .  S
C569        C570   1.420       .  A
C569        C574   1.426       .  A
C570        C571   1.423       .  A
C570        H575   1.083   1_455  S
C571        C572   1.413       .  A
C571        O576   1.371       .  S
C572        C573   1.401       .  A
C573        C574   1.394       .  A
C573        H577   1.083       .  S
C574        O578   1.373       .  S
O576        H580   0.992       .  S
O578        H579   0.992       .  S
C581        C582   1.419       .  A
C581        C586   1.416   1_455  A
C582        C583   1.410       .  A
C582        H587   1.078       .  S
C583        C584   1.411       .  A
C583        O588   1.371       .  S
C584       C1405   1.491       .  S
C584        C585   1.398       .  A
C585        C586   1.393   1_455  A
C585       H1797   1.084   1_455  S
C586        O590   1.362       .  S
O588        H592   0.992       .  S
H589       C1793   1.084   1_645  S
O590        H591   0.992       .  S
C593        C594   1.420       .  A
C593        C598   1.423       .  A
C594       C1199   1.408       .  A
C594        H599   1.083       .  S
C595        C596   1.408       .  A
C595       C1198   1.406       .  A
C595        O600   1.371       .  S
C596        C597   1.405       .  A
C597       C1202   1.398       .  A
C597        H601   1.083       .  S
C598       C1201   1.396       .  A
C598        O602   1.375       .  S
O600        H604   0.992       .  S
O602        H603   0.993   1_655  S
C605        C756   1.569       .  S
C605       C1173   1.579   1_655  S
C605       C1185   1.565   1_655  S
C605       C1197   1.571       .  S
C606        C678   1.569       .  S
C606       C1137   1.584       .  S
C606       C1149   1.589       .  S
C606       C1161   1.563       .  S
Zr607       O608   2.438       .  S
Zr607       O609   2.447       .  S
Zr607       O610   2.460       .  S
Zr607       O613   2.457       .  S
Zr607       O615   2.385       .  S
Zr607       O616   2.385       .  S
Zr607       O617   2.418       .  S
Zr607       O618   2.421       .  S
O608        H664   0.990       .  S
O608        H672   0.990       .  S
O609        C629   1.286       .  A
O610        C631   1.289       .  A
O611       Zr621   2.449       .  S
O611        C630   1.288       .  A
O612       Zr620   2.412       .  S
O612        C631   1.282       .  A
O613        C630   1.288       .  A
O614       Zr622   2.398       .  S
O614        C629   1.278       .  A
O615       Zr620   2.386       .  S
O615       Zr622   2.381       .  S
O616       Zr621   2.385       .  S
O616       Zr622   2.364       .  S
O616        H651   0.966       .  S
O617       Zr620   2.398       .  S
O617       Zr637   2.398       .  S
O617        H654   0.965       .  S
O618       Zr621   2.389       .  S
O618       Zr637   2.419       .  S
Zr619       O644   2.444       .  S
Zr619       O638   2.448       .  S
Zr619       O646   2.450       .  S
Zr619       O634   2.448       .  S
Zr619       O625   2.398       .  S
Zr619       O626   2.408       .  S
Zr619       O627   2.380       .  S
Zr619       O628   2.394       .  S
Zr620       O639   2.436       .  S
Zr620       O632   2.435       .  S
Zr620       O633   2.415       .  S
Zr620       O626   2.394       .  S
Zr620       O627   2.392       .  S
Zr621       O623   2.434       .  S
Zr621       O645   2.440       .  S
Zr621       O647   2.422       .  S
Zr621       O625   2.393       .  S
Zr621       O628   2.406       .  S
Zr622       O648   2.436       .  S
Zr622       O649   2.436       .  S
Zr622       O624   2.437       .  S
Zr622       O625   2.379       .  S
Zr622       O626   2.374       .  S
O623        H660   0.990       .  S
O624        H655   0.990       .  S
O624        H669   0.990       .  S
O626        H652   0.964       .  S
O627       Zr637   2.377       .  S
O628       Zr637   2.383       .  S
O628        H653   0.965       .  S
C629       C1113   1.463       .  S
C630       C1077   1.495       .  S
O632        H668   0.990       .  S
O633        C635   1.281       .  A
O634        C635   1.288       .  A
C635       C1125   1.488       .  S
O636       Zr637   2.440       .  S
O636        H665   0.990       .  S
Zr637       O640   2.438       .  S
Zr637       O641   2.439       .  S
Zr637       O642   2.446       .  S
O638        C643   1.286       .  A
O639        H656   0.991       .  S
O639        H671   0.990       .  S
O640        H657   0.990       .  S
O641        H661   0.990       .  S
O641        H670   0.990       .  S
O642        C643   1.285       .  A
C643       C1089   1.496       .  S
O644        H663   0.991       .  S
O644        H667   0.991       .  S
O645        H659   0.990       .  S
O645        H666   0.990       .  S
O646        C650   1.285       .  A
O647        C650   1.283       .  A
O648        H658   0.990       .  S
O649        H662   0.990       .  S
C650       C1164   1.477       .  S
C673        C674   1.525       .  S
C673        C679   1.525       .  S
C673        C677   1.533       .  S
C673       C1053   1.527       .  S
C674        H681   1.087       .  S
C674        C675   1.356       .  D
C675        C676   1.547       .  S
C675       C1101   1.481       .  S
C676        C680   1.538       .  S
C676        C678   1.568       .  S
C676        H682   1.103       .  S
C677        H683   1.067       .  S
C677        C678   1.382       .  D
C679        H684   1.086       .  S
C679        C680   1.357       .  D
C680       C1068   1.471       .  S
Zr685       O686   2.439   1_655  S
Zr685       O687   2.432       .  S
Zr685       O688   2.472       .  S
Zr685       O691   2.463   1_655  S
Zr685       O693   2.389       .  S
Zr685       O694   2.384       .  S
Zr685       O695   2.407       .  S
Zr685       O696   2.414   1_655  S
O686        H742   0.990   1_455  S
O686        H750   0.990       .  S
O687        C707   1.283       .  A
O688        C709   1.293       .  A
O689       Zr699   2.445   1_455  S
O689        C708   1.287       .  A
O690       Zr698   2.398       .  S
O690        C709   1.278       .  A
O691        C708   1.290       .  A
O692       Zr700   2.396       .  S
O692        C707   1.277       .  A
O693       Zr698   2.390       .  S
O693       Zr700   2.380       .  S
O694       Zr699   2.378       .  S
O694       Zr700   2.366       .  S
O694        H729   0.966       .  S
O695       Zr698   2.398       .  S
O695       Zr715   2.387   1_655  S
O695        H732   0.965       .  S
O696       Zr699   2.381   1_455  S
O696       Zr715   2.398       .  S
Zr697       O722   2.443       .  S
Zr697       O716   2.462       .  S
Zr697       O724   2.477       .  S
Zr697       O712   2.473       .  S
Zr697       O703   2.411       .  S
Zr697       O704   2.413       .  S
Zr697       O705   2.381       .  S
Zr697       O706   2.406   1_655  S
Zr698       O717   2.434       .  S
Zr698       O710   2.435       .  S
Zr698       O711   2.411       .  S
Zr698       O704   2.395       .  S
Zr698       O705   2.376       .  S
Zr699       O701   2.435   1_655  S
Zr699       O723   2.439       .  S
Zr699       O725   2.397       .  S
Zr699       O703   2.400       .  S
Zr699       O706   2.400   1_655  S
Zr700       O726   2.436       .  S
Zr700       O727   2.436       .  S
Zr700       O702   2.436       .  S
Zr700       O703   2.385       .  S
Zr700       O704   2.369       .  S
O701        H738   0.990       .  S
O702        H733   0.990       .  S
O702        H747   0.989       .  S
O704        H730   0.963       .  S
O705       Zr715   2.379   1_655  S
O706       Zr715   2.381       .  S
O706        H731   0.965       .  S
C707       C2264   1.456       .  S
C708       C2225   1.496       .  S
C709       C1041   1.481       .  S
O710        H746   0.990       .  S
O711        C713   1.282       .  A
O712        C713   1.292       .  A
C713       C1065   1.493       .  S
O714       Zr715   2.438       .  S
O714        H743   0.990       .  S
Zr715       O718   2.438       .  S
Zr715       O719   2.443       .  S
Zr715       O720   2.403       .  S
O716        C721   1.287   1_655  A
O717        H734   0.990       .  S
O717        H749   0.990       .  S
O718        H735   0.990       .  S
O719        H739   0.991       .  S
O719        H748   0.990       .  S
O720        C721   1.280       .  A
C721       C1029   1.495       .  S
O722        H741   0.990       .  S
O722        H745   0.991       .  S
O723        H737   0.990   1_655  S
O723        H744   0.990       .  S
O724        C728   1.290       .  A
O725        C728   1.280       .  A
O726        H736   0.990       .  S
O727        H740   0.990       .  S
C728       C1200   1.494   1_556  S
C751        C752   1.530       .  S
C751        C757   1.521       .  S
C751        C755   1.538       .  S
C751       C1116   1.531       .  S
C752        H759   1.083       .  S
C752        C753   1.366       .  D
C753        C754   1.557       .  S
C753       C1044   1.505       .  S
C754        C758   1.537       .  S
C754        C756   1.560       .  S
C754        H760   1.097       .  S
C755        H761   1.076       .  S
C755        C756   1.384       .  D
C757        H762   1.087       .  S
C757        C758   1.355       .  D
C758       C1128   1.468       .  S
C763        C914   1.558       .  S
C763       C1005   1.566       .  S
C763       C1080   1.569       .  S
C763       C1092   1.581       .  S
C764        C836   1.587       .  S
C764        C993   1.591       .  S
C764       C1020   1.580       .  S
C764       C1032   1.572       .  S
Zr765       O766   2.438       .  S
Zr765       O767   2.430       .  S
Zr765       O768   2.467       .  S
Zr765       O771   2.483       .  S
Zr765       O773   2.392       .  S
Zr765       O774   2.392       .  S
Zr765       O775   2.412       .  S
Zr765       O776   2.412       .  S
O766        H822   0.990       .  S
O766        H830   0.991       .  S
O767        C787   1.281       .  A
O768        C789   1.291       .  A
O769       Zr779   2.430       .  S
O769        C788   1.286       .  A
O770       Zr778   2.404       .  S
O770        C789   1.279       .  A
O771        C788   1.293       .  A
O772       Zr780   2.412       .  S
O772        C787   1.273       .  A
O773       Zr778   2.384       .  S
O773       Zr780   2.368       .  S
O774       Zr779   2.383       .  S
O774       Zr780   2.372       .  S
O774        H809   0.966       .  S
O775       Zr778   2.406       .  S
O775       Zr795   2.391       .  S
O775        H812   0.966       .  S
O776       Zr779   2.384       .  S
O776       Zr795   2.401       .  S
Zr777       O802   2.439       .  S
Zr777       O796   2.451       .  S
Zr777       O804   2.454       .  S
Zr777       O792   2.462       .  S
Zr777       O783   2.408       .  S
Zr777       O784   2.410       .  S
Zr777       O785   2.377       .  S
Zr777       O786   2.392       .  S
Zr778       O797   2.435       .  S
Zr778       O790   2.435       .  S
Zr778       O791   2.427       .  S
Zr778       O784   2.397       .  S
Zr778       O785   2.379       .  S
Zr779       O781   2.437       .  S
Zr779       O803   2.438       .  S
Zr779       O805   2.405       .  S
Zr779       O783   2.396       .  S
Zr779       O786   2.391       .  S
Zr780       O806   2.438       .  S
Zr780       O807   2.433       .  S
Zr780       O782   2.436       .  S
Zr780       O783   2.395       .  S
Zr780       O784   2.375       .  S
O781        H818   0.990   1_455  S
O782        H813   0.990       .  S
O782        H827   0.990       .  S
O784        H810   0.965       .  S
O785       Zr795   2.380       .  S
O786       Zr795   2.377       .  S
O786        H811   0.965       .  S
C787        C969   1.461       .  S
C788       C1176   1.505       .  S
C789        C960   1.469       .  S
O790        H826   0.990       .  S
O791        C793   1.285       .  A
O792        C793   1.289       .  A
C793        C981   1.496       .  S
O794       Zr795   2.438   1_655  S
O794        H823   0.990       .  S
Zr795       O798   2.435       .  S
Zr795       O799   2.445   1_455  S
Zr795       O800   2.413       .  S
O796        C801   1.286       .  A
O797        H814   0.990       .  S
O797        H829   0.990       .  S
O798        H815   0.990       .  S
O799        H819   0.990       .  S
O799        H828   0.990       .  S
O800        C801   1.283       .  A
C801       C2396   1.494   1_545  S
O802        H821   0.990       .  S
O802        H825   0.990       .  S
O803        H817   0.990       .  S
O803        H824   0.990       .  S
O804        C808   1.288       .  A
O805        C808   1.281       .  A
O806        H816   0.990       .  S
O807        H820   0.990       .  S
C808        C996   1.481       .  S
C831        C832   1.525       .  S
C831        C837   1.518       .  S
C831        C835   1.543       .  S
C831        C933   1.535       .  S
C832        H839   1.086       .  S
C832        C833   1.361       .  D
C833        C834   1.548       .  S
C833        C957   1.498       .  S
C834        C838   1.540       .  S
C834        C836   1.573       .  S
C834        H840   1.104       .  S
C835        H841   1.060       .  S
C835        C836   1.386       .  D
C837        H842   1.086       .  S
C837        C838   1.357       .  D
C838        C945   1.468       .  S
Zr843       O844   2.438       .  S
Zr843       O845   2.456       .  S
Zr843       O846   2.477       .  S
Zr843       O849   2.468       .  S
Zr843       O851   2.387       .  S
Zr843       O852   2.387       .  S
Zr843       O853   2.416       .  S
Zr843       O854   2.423       .  S
O844        H900   0.990       .  S
O844        H908   0.990       .  S
O845        C865   1.288       .  A
O846        C867   1.292       .  A
O847       Zr857   2.427       .  S
O847        C866   1.285       .  A
O848       Zr856   2.409       .  S
O848        C867   1.279       .  A
O849        C866   1.291       .  A
O850       Zr858   2.401       .  S
O850        C865   1.278       .  A
O851       Zr856   2.390       .  S
O851       Zr858   2.382       .  S
O852       Zr857   2.387       .  S
O852       Zr858   2.363       .  S
O852        H887   0.965       .  S
O853       Zr856   2.397       .  S
O853       Zr873   2.398       .  S
O853        H890   0.965       .  S
O854       Zr857   2.389       .  S
O854       Zr873   2.408       .  S
Zr855       O880   2.442       .  S
Zr855      O2082   2.445       .  S
Zr855       O882   2.456       .  S
Zr855      O2078   2.436       .  S
Zr855       O861   2.404       .  S
Zr855       O862   2.411       .  S
Zr855       O863   2.383       .  S
Zr855       O864   2.388       .  S
Zr856       O875   2.436       .  S
Zr856       O868   2.436       .  S
Zr856       O869   2.409       .  S
Zr856       O862   2.395       .  S
Zr856       O863   2.390       .  S
Zr857       O859   2.435       .  S
Zr857       O881   2.439       .  S
Zr857       O883   2.419       .  S
Zr857       O861   2.391       .  S
Zr857       O864   2.397       .  S
Zr858       O884   2.436       .  S
Zr858       O885   2.435       .  S
Zr858       O860   2.436       .  S
Zr858       O861   2.392       .  S
Zr858       O862   2.369       .  S
O859        H896   0.990       .  S
O860        H891   0.990       .  S
O860        H905   0.990       .  S
O862        H888   0.962       .  S
O863       Zr873   2.382       .  S
O864       Zr873   2.379       .  S
O864        H889   0.965       .  S
C865        C936   1.470       .  S
C866       C1152   1.505       .  S
O868        H904   0.990       .  S
O869       C2079   1.282       .  A
O870      Zr2063   2.448       .  S
O870        C871   1.287       .  A
C871       O2077   1.282       .  A
C871        C948   1.478   1_565  S
O872       Zr873   2.439       .  S
O872        H901   0.990       .  S
Zr873       O876   2.437       .  S
Zr873       O877   2.440       .  S
Zr873       O878   2.439       .  S
O874      Zr2063   2.444   1_545  S
O874        C879   1.284       .  A
O875        H892   0.990       .  S
O875        H907   0.990       .  S
O876        H893   0.990       .  S
O877        H897   0.990       .  S
O877        H906   0.990       .  S
O878       C2087   1.284       .  A
C879       O2086   1.283   1_545  A
C879       C1140   1.478       .  S
O880        H899   0.990       .  S
O880        H903   0.990       .  S
O881        H895   0.990       .  S
O881        H902   0.990       .  S
O882        C886   1.287       .  A
O883        C886   1.281       .  A
O884        H894   0.991       .  S
O885        H898   0.990       .  S
C886       C1008   1.477       .  S
C909        C910   1.522       .  S
C909        C915   1.523       .  S
C909        C913   1.535       .  S
C909        C972   1.522       .  S
C910        H917   1.084       .  S
C910        C911   1.366       .  D
C911        C912   1.562       .  S
C911        C924   1.514       .  S
C912        C916   1.544       .  S
C912        C914   1.569       .  S
C912        H918   1.102       .  S
C913        H919   1.080       .  S
C913        C914   1.380       .  D
C915        H920   1.087       .  S
C915        C916   1.350       .  D
C916        C984   1.480       .  S
C921        C922   1.403       .  A
C921        C926   1.399       .  A
C922        C923   1.408       .  A
C922        H927   1.084       .  S
C923        C924   1.415       .  A
C923        O928   1.370       .  S
C924        C925   1.419       .  A
C925        C926   1.400       .  A
C925        H929   1.080       .  S
O928        H932   0.992       .  S
C933        C934   1.409       .  A
C933        C938   1.423       .  A
C934        C935   1.403       .  A
C934        H939   1.078       .  S
C935        C936   1.407       .  A
C935        O940   1.372       .  S
C936        C937   1.395       .  A
C937        C938   1.399       .  A
C937        H941   1.084       .  S
C938        O942   1.373       .  S
O940        H944   0.992       .  S
O942        H943   0.992       .  S
C945        C946   1.399       .  A
C945        C950   1.405       .  A
C946        C947   1.400       .  A
C946        H951   1.084       .  S
C947        C948   1.413       .  A
C947        O952   1.371       .  S
C948        C949   1.405       .  A
C949        C950   1.392       .  A
C949        H953   1.083       .  S
C950        O954   1.374       .  S
O952        H956   0.992       .  S
O954        H955   0.992       .  S
C957        C958   1.411       .  A
C957        C962   1.414       .  A
C958        C959   1.398       .  A
C958        H963   1.083       .  S
C959        C960   1.403       .  A
C959        O964   1.373       .  S
C960        C961   1.402       .  A
C961        C962   1.405       .  A
C961        H965   1.084       .  S
C962        O966   1.371       .  S
O964        H968   0.992       .  S
O966        H967   0.992       .  S
C969        C970   1.393       .  A
C969        C974   1.407       .  A
C970        C971   1.388       .  A
C970        H975   1.085       .  S
C971        C972   1.421       .  A
C971        O976   1.374       .  S
C972        C973   1.408       .  A
C973        C974   1.401       .  A
C973        H977   1.079       .  S
C974        O978   1.371       .  S
O976        H980   0.992       .  S
O978        H979   0.992       .  S
C981        C982   1.409       .  A
C981       C2194   1.417       .  A
C982       C2191   1.397   1_545  A
C982        H987   1.083       .  S
C983       C2190   1.397       .  A
C983        C984   1.407       .  A
C983        O988   1.373       .  S
C984        C985   1.401       .  A
C985        C986   1.406       .  A
C985        H989   1.084       .  S
C986       C2189   1.416       .  A
C986        O990   1.370       .  S
O988       H2200   0.992       .  S
O990        H991   0.991       .  S
H992       O2196   0.992       .  S
C993        C994   1.425       .  A
C993        C998   1.434       .  A
C994        H999   1.074       .  S
C995        C996   1.397       .  A
C995       O1000   1.372       .  S
C996        C997   1.397       .  A
C997       H1001   1.084       .  S
C998       O1002   1.379       .  S
O1000      H1004   0.992       .  S
O1002      H1003   0.993       .  S
C1005      C1006   1.418       .  A
C1005      C1010   1.424       .  A
C1006      C1007   1.400       .  A
C1006      H1011   1.078       .  S
C1007      C1008   1.403       .  A
C1007      O1012   1.372       .  S
C1008      C1009   1.400       .  A
C1009      C1010   1.405       .  A
C1009      H1013   1.084       .  S
C1010      O1014   1.373       .  S
O1012      H1016   0.992       .  S
O1014      H2223   0.992       .  S
H1015      O2222   0.992       .  S
C1017      C1916   1.495       .  S
C1017      C1018   1.397       .  A
C1017      C1022   1.410       .  A
C1018      C1019   1.403       .  A
C1018      H2231   1.084       .  S
C1019      C1020   1.427       .  A
C1019      O1024   1.374       .  S
C1020      C1021   1.421       .  A
C1021      C1022   1.414       .  A
C1021      H1025   1.080       .  S
C1022      O1026   1.371   1_455  S
H1023      C2226   1.084       .  S
O1024      H1028   0.992       .  S
O1026      H1027   0.992       .  S
C1029      C1030   1.400       .  A
C1029      C1034   1.410       .  A
C1030      C1031   1.393       .  A
C1030      H1035   1.083       .  S
C1031      C1032   1.419       .  A
C1031      O1036   1.364       .  S
C1032      C1033   1.423       .  A
C1033      C1034   1.412       .  A
C1033      H1037   1.083       .  S
C1034      O1038   1.371   1_455  S
O1036      H1040   0.993       .  S
O1038      H1039   0.992       .  S
C1041      C1042   1.395       .  A
C1041      C1046   1.413       .  A
C1042      C1043   1.402       .  A
C1042      H1047   1.084       .  S
C1043      C1044   1.425       .  A
C1043      O1048   1.371       .  S
C1044      C1045   1.404       .  A
C1045      C1046   1.400       .  A
C1045      H1049   1.081       .  S
C1046      O1050   1.372       .  S
O1048      H1052   0.992       .  S
O1050      H1051   0.992       .  S
C1053      C1054   1.411       .  A
C1053      C1058   1.420       .  A
C1054      C1055   1.399       .  A
C1054      H1059   1.079       .  S
C1055      C1056   1.402       .  A
C1055      O2268   1.372       .  S
C1056      C1915   1.457       .  S
C1056      C1057   1.394       .  A
C1057      C1058   1.395       .  A
C1057      H1061   1.084       .  S
C1058      O1062   1.373       .  S
O1060      C2263   1.373       .  S
O1060      H1064   0.992       .  S
O1062      H1063   0.992       .  S
C1065      C1066   1.412       .  A
C1065      C1070   1.414       .  A
C1066      C1067   1.396       .  A
C1066      H1071   1.083       .  S
C1067      C1068   1.401       .  A
C1067      O1072   1.373       .  S
C1068      C1069   1.401       .  A
C1069      C1070   1.404       .  A
C1069      H1073   1.083       .  S
C1070      O1074   1.371       .  S
O1072      H1076   0.992       .  S
O1074      H1075   0.992       .  S
C1077      C1078   1.396       .  A
C1077      C1082   1.412   1_545  A
C1078      C2287   1.400   1_545  A
C1078      H1083   1.084       .  S
C1079      C2286   1.401       .  A
C1079      C1080   1.426       .  A
C1079      O1084   1.371       .  S
C1080      C1081   1.417       .  A
C1081      C2290   1.413       .  A
C1081      H1085   1.079       .  S
C1082      C2289   1.415       .  A
C1082      O1086   1.370       .  S
O1084      H2296   0.992       .  S
O1086      H2295   0.991       .  S
H1087      O2294   0.992       .  S
H1088      O2292   0.992       .  S
C1089      C1090   1.397       .  A
C1089      C1094   1.409       .  A
C1090      C1091   1.403       .  A
C1090      H1095   1.084       .  S
C1091      C1092   1.435       .  A
C1091      O1096   1.371       .  S
C1092      C1093   1.418       .  A
C1093      C1094   1.410       .  A
C1093      H1097   1.078       .  S
C1094      O1098   1.371       .  S
O1096      H1100   0.992       .  S
O1098      H1099   0.992       .  S
C1101      C1102   1.403       .  A
C1101      C1106   1.408       .  A
C1102      C1103   1.407       .  A
C1102      H1107   1.082       .  S
C1103      C1104   1.411       .  A
C1103      O1108   1.372       .  S
C1104      C1105   1.402       .  A
C1105      C1106   1.396       .  A
C1105      H1109   1.084       .  S
C1106      O1110   1.372       .  S
O1108      H1112   0.992       .  S
O1110      H1111   0.992       .  S
C1113      C1114   1.396   1_545  A
C1113      C1118   1.403       .  A
C1114      C2323   1.398       .  A
C1114      H1119   1.084       .  S
C1115      C2322   1.395       .  A
C1115      C1116   1.419       .  A
C1115      O1120   1.373       .  S
C1116      C2325   1.412       .  A
C1117      C2324   1.413       .  A
C1117      C1118   1.401   1_565  A
C1117      H1121   1.076       .  S
C1118      O1122   1.372       .  S
O1120      H1124   0.992       .  S
O1122      H1123   0.992       .  S
C1125      C1126   1.407       .  A
C1125      C1130   1.417       .  A
C1126      C1127   1.399       .  A
C1126      H1131   1.083       .  S
C1127      C1128   1.405       .  A
C1127      O1132   1.372       .  S
C1128      C1129   1.397       .  A
C1129      C1130   1.398       .  A
C1129      H1133   1.084       .  S
C1130      O1134   1.372       .  S
O1132      H1136   0.992       .  S
O1134      H1135   0.992       .  S
C1137      C1138   1.416       .  A
C1137      C1142   1.438       .  A
C1138      C1139   1.412       .  A
C1138      H1143   1.074       .  S
C1139      C1140   1.406       .  A
C1139      O1144   1.371       .  S
C1140      C1141   1.387       .  A
C1141      C1142   1.396       .  A
C1141      H1145   1.085       .  S
C1142      O1146   1.371       .  S
O1144      H1148   0.992       .  S
O1146      H1147   0.993       .  S
C1149      C1150   1.422       .  A
C1149      C1154   1.428       .  A
C1150      C1151   1.389       .  A
C1150      H1155   1.078       .  S
C1151      C1152   1.408       .  A
C1151      O1156   1.373       .  S
C1152      C1153   1.410       .  A
C1153      C1154   1.424       .  A
C1153      H1157   1.083       .  S
C1154      O1158   1.372       .  S
O1156      H1160   0.992       .  S
O1158      H1159   0.992       .  S
C1161      C1162   1.416       .  A
C1161      C1166   1.422       .  A
C1162      C1163   1.403       .  A
C1162      H1167   1.079       .  S
C1163      C1164   1.407       .  A
C1163      O1168   1.372       .  S
C1164      C1165   1.397       .  A
C1165      C1166   1.397       .  A
C1165      H1169   1.084       .  S
C1166      O1170   1.373       .  S
O1168      H1172   0.992       .  S
O1170      H1171   0.992       .  S
C1173      C1174   1.419       .  A
C1173      C1178   1.428       .  A
C1174      C1175   1.422       .  A
C1174      H1179   1.083   1_455  S
C1175      C1176   1.412       .  A
C1175      O1180   1.370       .  S
C1176      C1177   1.401       .  A
C1177      C1178   1.395       .  A
C1177      H1181   1.083       .  S
C1178      O1182   1.373       .  S
O1180      H1184   0.992       .  S
O1182      H1183   0.992       .  S
C1185      C1186   1.418       .  A
C1185      C1190   1.420   1_455  A
C1186      C1187   1.409       .  A
C1186      H1191   1.078       .  S
C1187      C1188   1.410       .  A
C1187      O1192   1.371       .  S
C1188      C2009   1.492       .  S
C1188      C1189   1.399       .  A
C1189      C1190   1.393   1_455  A
C1189      H2401   1.084   1_455  S
C1190      O1194   1.363       .  S
O1192      H1196   0.992       .  S
H1193      C2397   1.084   1_645  S
O1194      H1195   0.993       .  S
C1197      C1198   1.420       .  A
C1197      C1202   1.423       .  A
C1198      H1203   1.083       .  S
C1199      C1200   1.408       .  A
C1199      O1204   1.371       .  S
C1200      C1201   1.404       .  A
C1201      H1205   1.083       .  S
C1202      O1206   1.375       .  S
O1204      H1208   0.992       .  S
O1206      H1207   0.993   1_655  S
C1209      C1360   1.573       .  S
C1209      C1777   1.577   1_655  S
C1209      C1789   1.565   1_655  S
C1209      C1801   1.571       .  S
C1210      C1282   1.571       .  S
C1210      C1741   1.584       .  S
C1210      C1753   1.587       .  S
C1210      C1765   1.564       .  S
Zr1211     O1212   2.439       .  S
Zr1211     O1213   2.457       .  S
Zr1211     O1214   2.461       .  S
Zr1211     O1217   2.454       .  S
Zr1211     O1219   2.383       .  S
Zr1211     O1220   2.386       .  S
Zr1211     O1221   2.418       .  S
Zr1211     O1222   2.425       .  S
O1212      H1268   0.990       .  S
O1212      H1276   0.990       .  S
O1213      C1233   1.287       .  A
O1214      C1235   1.289       .  A
O1215     Zr1225   2.446       .  S
O1215      C1234   1.287       .  A
O1216     Zr1224   2.414       .  S
O1216      C1235   1.282       .  A
O1217      C1234   1.288       .  A
O1218     Zr1226   2.394       .  S
O1218      C1233   1.277       .  A
O1219     Zr1224   2.388       .  S
O1219     Zr1226   2.381       .  S
O1220     Zr1225   2.386       .  S
O1220     Zr1226   2.366       .  S
O1220      H1255   0.966       .  S
O1221     Zr1224   2.396       .  S
O1221     Zr1241   2.397       .  S
O1221      H1258   0.965       .  S
O1222     Zr1225   2.387       .  S
O1222     Zr1241   2.417       .  S
Zr1223     O1248   2.444       .  S
Zr1223     O1242   2.444       .  S
Zr1223     O1250   2.453       .  S
Zr1223     O1238   2.459       .  S
Zr1223     O1229   2.402       .  S
Zr1223     O1230   2.405       .  S
Zr1223     O1231   2.378       .  S
Zr1223     O1232   2.397       .  S
Zr1224     O1243   2.435       .  S
Zr1224     O1236   2.434       .  S
Zr1224     O1237   2.414       .  S
Zr1224     O1230   2.393       .  S
Zr1224     O1231   2.391       .  S
Zr1225     O1227   2.434       .  S
Zr1225     O1249   2.439       .  S
Zr1225     O1251   2.418       .  S
Zr1225     O1229   2.397       .  S
Zr1225     O1232   2.404       .  S
Zr1226     O1252   2.436       .  S
Zr1226     O1253   2.436       .  S
Zr1226     O1228   2.436       .  S
Zr1226     O1229   2.382       .  S
Zr1226     O1230   2.371       .  S
O1227      H1264   0.990       .  S
O1228      H1259   0.990       .  S
O1228      H1273   0.989       .  S
O1230      H1256   0.964       .  S
O1231     Zr1241   2.378       .  S
O1232     Zr1241   2.383       .  S
O1232      H1257   0.965       .  S
C1233      C1717   1.466       .  S
C1234      C1681   1.492       .  S
C1235      C2312   1.481   1_554  S
O1236      H1272   0.990       .  S
O1237      C1239   1.281       .  A
O1238      C1239   1.290       .  A
C1239      C1729   1.491       .  S
O1240     Zr1241   2.439       .  S
O1240      H1269   0.990       .  S
Zr1241     O1244   2.437       .  S
Zr1241     O1245   2.441       .  S
Zr1241     O1246   2.443       .  S
O1242      C1247   1.285       .  A
O1243      H1260   0.990       .  S
O1243      H1275   0.990       .  S
O1244      H1261   0.990       .  S
O1245      H1265   0.989       .  S
O1245      H1274   0.989       .  S
O1246      C1247   1.284       .  A
C1247      C1693   1.493       .  S
O1248      H1267   0.991       .  S
O1248      H1271   0.990       .  S
O1249      H1263   0.990       .  S
O1249      H1270   0.990       .  S
O1250      C1254   1.286       .  A
O1251      C1254   1.282       .  A
O1252      H1262   0.990       .  S
O1253      H1266   0.990       .  S
C1254      C1768   1.476       .  S
C1277      C1278   1.527       .  S
C1277      C1283   1.525       .  S
C1277      C1281   1.532       .  S
C1277      C1657   1.529       .  S
C1278      H1285   1.087       .  S
C1278      C1279   1.358       .  D
C1279      C1280   1.548       .  S
C1279      C1705   1.485       .  S
C1280      C1284   1.539       .  S
C1280      C1282   1.568       .  S
C1280      H1286   1.102       .  S
C1281      H1287   1.068       .  S
C1281      C1282   1.383       .  D
C1283      H1288   1.086       .  S
C1283      C1284   1.357       .  D
C1284      C1672   1.473       .  S
Zr1289     O1290   2.439   1_655  S
Zr1289     O1291   2.432       .  S
Zr1289     O1292   2.466       .  S
Zr1289     O1295   2.455   1_665  S
Zr1289     O1297   2.386       .  S
Zr1289     O1298   2.389       .  S
Zr1289     O1299   2.410       .  S
Zr1289     O1300   2.416   1_655  S
O1290      H1346   0.990   1_455  S
O1290      H1354   0.990       .  S
O1291      C1311   1.282   1_565  A
O1292      C1313   1.291       .  A
O1293     Zr1303   2.448   1_455  S
O1293      C1312   1.287   1_565  A
O1294     Zr1302   2.399       .  S
O1294      C1313   1.278       .  A
O1295      C1312   1.288       .  A
O1296     Zr1304   2.398       .  S
O1296      C1311   1.278   1_565  A
O1297     Zr1302   2.391       .  S
O1297     Zr1304   2.379       .  S
O1298     Zr1303   2.386       .  S
O1298     Zr1304   2.369       .  S
O1298      H1333   0.966       .  S
O1299     Zr1302   2.402       .  S
O1299     Zr1319   2.392   1_655  S
O1299      H1336   0.965       .  S
O1300     Zr1303   2.378   1_455  S
O1300     Zr1319   2.399       .  S
Zr1301     O1326   2.442       .  S
Zr1301     O1320   2.460       .  S
Zr1301     O1328   2.466       .  S
Zr1301     O1316   2.460       .  S
Zr1301     O1307   2.413       .  S
Zr1301     O1308   2.413       .  S
Zr1301     O1309   2.379       .  S
Zr1301     O1310   2.404   1_655  S
Zr1302     O1321   2.434       .  S
Zr1302     O1314   2.435       .  S
Zr1302     O1315   2.418       .  S
Zr1302     O1308   2.394       .  S
Zr1302     O1309   2.376       .  S
Zr1303     O1305   2.436   1_655  S
Zr1303     O1327   2.441       .  S
Zr1303     O1329   2.404       .  S
Zr1303     O1307   2.399       .  S
Zr1303     O1310   2.399   1_655  S
Zr1304     O1330   2.435       .  S
Zr1304     O1331   2.436       .  S
Zr1304     O1306   2.438       .  S
Zr1304     O1307   2.385       .  S
Zr1304     O1308   2.370       .  S
O1305      H1342   0.990       .  S
O1306      H1337   0.990       .  S
O1306      H1351   0.990       .  S
O1308      H1334   0.963       .  S
O1309     Zr1319   2.379   1_655  S
O1310     Zr1319   2.381       .  S
O1310      H1335   0.964       .  S
C1313      C1645   1.479       .  S
O1314      H1350   0.989       .  S
O1315      C1317   1.283       .  A
O1316      C1317   1.289       .  A
C1317      C1669   1.492       .  S
O1318     Zr1319   2.436       .  S
O1318      H1347   0.990       .  S
Zr1319     O1322   2.437       .  S
Zr1319     O1323   2.443       .  S
Zr1319     O1324   2.407       .  S
O1320      C1325   1.286   1_655  A
O1321      H1338   0.990       .  S
O1321      H1353   0.990       .  S
O1322      H1339   0.990       .  S
O1323      H1343   0.991       .  S
O1323      H1352   0.989       .  S
O1324      C1325   1.281       .  A
C1325      C1633   1.495       .  S
O1326      H1345   0.990       .  S
O1326      H1349   0.990       .  S
O1327      H1341   0.991   1_655  S
O1327      H1348   0.990       .  S
O1328      C1332   1.288       .  A
O1329      C1332   1.281       .  A
O1330      H1340   0.990       .  S
O1331      H1344   0.990       .  S
C1332      C1804   1.493       .  S
C1355      C1356   1.528       .  S
C1355      C1361   1.522       .  S
C1355      C1359   1.539       .  S
C1355      C1720   1.534       .  S
C1356      H1363   1.083       .  S
C1356      C1357   1.365       .  D
C1357      C1358   1.559       .  S
C1357      C1648   1.503       .  S
C1358      C1362   1.542       .  S
C1358      C1360   1.560       .  S
C1358      H1364   1.098       .  S
C1359      H1365   1.074       .  S
C1359      C1360   1.383       .  D
C1361      H1366   1.087       .  S
C1361      C1362   1.357       .  D
C1362      C1732   1.472       .  S
C1367      C1518   1.556       .  S
C1367      C1609   1.566       .  S
C1367      C1684   1.568       .  S
C1367      C1696   1.580       .  S
C1368      C1440   1.585       .  S
C1368      C1597   1.592       .  S
C1368      C1624   1.584       .  S
C1368      C1636   1.572       .  S
Zr1369     O1370   2.438       .  S
Zr1369     O1371   2.428       .  S
Zr1369     O1372   2.466       .  S
Zr1369     O1375   2.482       .  S
Zr1369     O1377   2.390       .  S
Zr1369     O1378   2.393       .  S
Zr1369     O1379   2.412       .  S
Zr1369     O1380   2.408       .  S
O1370      H1426   0.990       .  S
O1370      H1434   0.991       .  S
O1371      C1391   1.282       .  A
O1372      C1393   1.291       .  A
O1373     Zr1383   2.421       .  S
O1373      C1392   1.284       .  A
O1374     Zr1382   2.397       .  S
O1374      C1393   1.278       .  A
O1375      C1392   1.293       .  A
O1376     Zr1384   2.418       .  S
O1376      C1391   1.275       .  A
O1377     Zr1382   2.384       .  S
O1377     Zr1384   2.368       .  S
O1378     Zr1383   2.383       .  S
O1378     Zr1384   2.371       .  S
O1378      H1413   0.966       .  S
O1379     Zr1382   2.406       .  S
O1379     Zr1399   2.394       .  S
O1379      H1416   0.966       .  S
O1380     Zr1383   2.380       .  S
O1380     Zr1399   2.396       .  S
Zr1381     O1406   2.439       .  S
Zr1381     O1400   2.444       .  S
Zr1381     O1408   2.444       .  S
Zr1381     O1396   2.456       .  S
Zr1381     O1387   2.407       .  S
Zr1381     O1388   2.409       .  S
Zr1381     O1389   2.374       .  S
Zr1381     O1390   2.395       .  S
Zr1382     O1401   2.437       .  S
Zr1382     O1394   2.433       .  S
Zr1382     O1395   2.421       .  S
Zr1382     O1388   2.399       .  S
Zr1382     O1389   2.373       .  S
Zr1383     O1385   2.435       .  S
Zr1383     O1407   2.439       .  S
Zr1383     O1409   2.397       .  S
Zr1383     O1387   2.392       .  S
Zr1383     O1390   2.389       .  S
Zr1384     O1410   2.437       .  S
Zr1384     O1411   2.436       .  S
Zr1384     O1386   2.436       .  S
Zr1384     O1387   2.394       .  S
Zr1384     O1388   2.379       .  S
O1385      H1422   0.990       .  S
O1386      H1417   0.990       .  S
O1386      H1431   0.989       .  S
O1388      H1414   0.965       .  S
O1389     Zr1399   2.378       .  S
O1390     Zr1399   2.381       .  S
O1390      H1415   0.965       .  S
C1391      C1573   1.461       .  S
C1392      C1780   1.503       .  S
C1393      C1564   1.466       .  S
O1394      H1430   0.990       .  S
O1395      C1397   1.284       .  A
O1396      C1397   1.287       .  A
C1397      C1585   1.492       .  S
O1398     Zr1399   2.443   1_655  S
O1398      H1427   0.990       .  S
Zr1399     O1402   2.437       .  S
Zr1399     O1403   2.445   1_455  S
Zr1399     O1404   2.416       .  S
O1400      C1405   1.285       .  A
O1401      H1418   0.990       .  S
O1401      H1433   0.990       .  S
O1402      H1419   0.990       .  S
O1403      H1423   0.990       .  S
O1403      H1432   0.989       .  S
O1404      C1405   1.284       .  A
O1406      H1425   0.990       .  S
O1406      H1429   0.990       .  S
O1407      H1421   0.990       .  S
O1407      H1428   0.990       .  S
O1408      C1412   1.286       .  A
O1409      C1412   1.279       .  A
O1410      H1420   0.990       .  S
O1411      H1424   0.990       .  S
C1412      C1600   1.476   1_554  S
C1435      C1436   1.524       .  S
C1435      C1441   1.519       .  S
C1435      C1439   1.544       .  S
C1435      C1537   1.533       .  S
C1436      H1443   1.087       .  S
C1436      C1437   1.360       .  D
C1437      C1438   1.547       .  S
C1437      C1561   1.493       .  S
C1438      C1442   1.537       .  S
C1438      C1440   1.569       .  S
C1438      H1444   1.105       .  S
C1439      H1445   1.059       .  S
C1439      C1440   1.387       .  D
C1441      H1446   1.086       .  S
C1441      C1442   1.356       .  D
C1442      C1549   1.462       .  S
Zr1447     O1448   2.441       .  S
Zr1447     O1449   2.456       .  S
Zr1447     O1450   2.469       .  S
Zr1447     O1453   2.464       .  S
Zr1447     O1455   2.386       .  S
Zr1447     O1456   2.386       .  S
Zr1447     O1457   2.414       .  S
Zr1447     O1458   2.420       .  S
O1448      H1504   0.990       .  S
O1448      H1512   0.991       .  S
O1449      C1469   1.288       .  A
O1450      C1471   1.291       .  A
O1451     Zr1461   2.434       .  S
O1451      C1470   1.286       .  A
O1452     Zr1460   2.410       .  S
O1452      C1471   1.279       .  A
O1453      C1470   1.290       .  A
O1454     Zr1462   2.396       .  S
O1454      C1469   1.277       .  A
O1455     Zr1460   2.389       .  S
O1455     Zr1462   2.383       .  S
O1456     Zr1461   2.385       .  S
O1456     Zr1462   2.364       .  S
O1456      H1491   0.965       .  S
O1457     Zr1460   2.394       .  S
O1457     Zr1477   2.397       .  S
O1457      H1494   0.966       .  S
O1458     Zr1461   2.387       .  S
O1458     Zr1477   2.406       .  S
Zr1459     O1484   2.442       .  S
Zr1459     O1486   2.455       .  S
Zr1459     O1465   2.403       .  S
Zr1459     O1466   2.407       .  S
Zr1459     O1467   2.381       .  S
Zr1459     O1468   2.392       .  S
Zr1460     O1479   2.435       .  S
Zr1460     O1472   2.435       .  S
Zr1460     O1473   2.411       .  S
Zr1460     O1466   2.395       .  S
Zr1460     O1467   2.388       .  S
Zr1461     O1463   2.434       .  S
Zr1461     O1485   2.439       .  S
Zr1461     O1487   2.425       .  S
Zr1461     O1465   2.391       .  S
Zr1461     O1468   2.401       .  S
Zr1462     O1488   2.436       .  S
Zr1462     O1489   2.434       .  S
Zr1462     O1464   2.436       .  S
Zr1462     O1465   2.385       .  S
Zr1462     O1466   2.366       .  S
O1463      H1500   0.990       .  S
O1464      H1495   0.990       .  S
O1464      H1509   0.990       .  S
O1466      H1492   0.963       .  S
O1467     Zr1477   2.379       .  S
O1468     Zr1477   2.380       .  S
O1468      H1493   0.965       .  S
C1469      C1540   1.466       .  S
C1470      C1756   1.504       .  S
C1471      C2129   1.473       .  S
O1472      H1508   0.990       .  S
O1474      C1475   1.285       .  A
C1475      C1552   1.475       .  S
O1476     Zr1477   2.438       .  S
O1476      H1505   0.990       .  S
Zr1477     O1480   2.438       .  S
Zr1477     O1481   2.440       .  S
Zr1477     O1482   2.439       .  S
O1478      C1483   1.283       .  A
O1479      H1496   0.990       .  S
O1479      H1511   0.990       .  S
O1480      H1497   0.990       .  S
O1481      H1501   0.990       .  S
O1481      H1510   0.990       .  S
C1483      C1744   1.476       .  S
O1484      H1503   0.990   1_565  S
O1484      H1507   0.990       .  S
O1485      H1499   0.990       .  S
O1485      H1506   0.990       .  S
O1486      C1490   1.287       .  A
O1487      C1490   1.283       .  A
O1488      H1498   0.990       .  S
O1489      H1502   0.990       .  S
C1490      C1612   1.478       .  S
C1513      C1514   1.527       .  S
C1513      C1519   1.527       .  S
C1513      C1517   1.532       .  S
C1513      C1576   1.525       .  S
C1514      H1521   1.085       .  S
C1514      C1515   1.366       .  D
C1515      C1516   1.559       .  S
C1515      C1528   1.512       .  S
C1516      C1520   1.544       .  S
C1516      C1518   1.568       .  S
C1516      H1522   1.104       .  S
C1517      H1523   1.081       .  S
C1517      C1518   1.379       .  D
C1519      H1524   1.087       .  S
C1519      C1520   1.354       .  D
C1520      C1588   1.482       .  S
C1525      C2075   1.476   1_554  S
C1525      C1526   1.403       .  A
C1525      C1530   1.401       .  A
C1526      C1527   1.408       .  A
C1526      H1531   1.084       .  S
C1527      C1528   1.415       .  A
C1527      O1532   1.369       .  S
C1528      C1529   1.416       .  A
C1529      C1530   1.402       .  A
C1529      H1533   1.082       .  S
C1530      O2138   1.372   1_554  S
O1532      H1536   0.992       .  S
O1534      C2134   1.372       .  S
O1534      H2139   0.992       .  S
H1535      O2138   0.992   1_554  S
C1537      C1538   1.410       .  A
C1537      C1542   1.422       .  A
C1538      C1539   1.404       .  A
C1538      H1543   1.078       .  S
C1539      C1540   1.407       .  A
C1539      O1544   1.372       .  S
C1540      C1541   1.394       .  A
C1541      C1542   1.396       .  A
C1541      H1545   1.085       .  S
C1542      O1546   1.374       .  S
O1544      H1548   0.992       .  S
O1546      H1547   0.992       .  S
C1549      C1550   1.397       .  A
C1549      C1554   1.404       .  A
C1550      C1551   1.397       .  A
C1550      H1555   1.084       .  S
C1551      C1552   1.413       .  A
C1551      O1556   1.372       .  S
C1552      C1553   1.406       .  A
C1553      C1554   1.391       .  A
C1553      H1557   1.083       .  S
C1554      O1558   1.374       .  S
O1556      H1560   0.992       .  S
O1558      H1559   0.992       .  S
C1561      C1562   1.410       .  A
C1561      C1566   1.412       .  A
C1562      C1563   1.397       .  A
C1562      H1567   1.083       .  S
C1563      C1564   1.404       .  A
C1563      O1568   1.372       .  S
C1564      C1565   1.401       .  A
C1565      C1566   1.403       .  A
C1565      H1569   1.084       .  S
C1566      O1570   1.371       .  S
O1568      H1572   0.992       .  S
O1570      H1571   0.992       .  S
C1573      C1574   1.393       .  A
C1573      C1578   1.407       .  A
C1574      C1575   1.388       .  A
C1574      H1579   1.085       .  S
C1575      C1576   1.418       .  A
C1575      O1580   1.373       .  S
C1576      C1577   1.411       .  A
C1577      C1578   1.404       .  A
C1577      H1581   1.079       .  S
C1578      O1582   1.372       .  S
O1580      H1584   0.992       .  S
O1582      H1583   0.992       .  S
C1585      C1586   1.407       .  A
C1586      H1591   1.083       .  S
C1587      C1588   1.407       .  A
C1587      O1592   1.373       .  S
C1588      C1589   1.402       .  A
C1589      C1590   1.407   1_565  A
C1589      H1593   1.084       .  S
C1590      O1594   1.371       .  S
O1594      H1595   0.992       .  S
C1597      C1598   1.425       .  A
C1597      C1602   1.433       .  A
C1598      C2203   1.401       .  A
C1598      H1603   1.074       .  S
C1599      C2202   1.399       .  A
C1599      C1600   1.397       .  A
C1599      O1604   1.372       .  S
C1600      C1601   1.397       .  A
C1601      C2206   1.400       .  A
C1601      H1605   1.084       .  S
C1602      C2205   1.406       .  A
C1602      O1606   1.379       .  S
O1604      H1608   0.992       .  S
O1606      H1607   0.993       .  S
C1609      C1610   1.418       .  A
C1609      C1614   1.424       .  A
C1610      C1611   1.401       .  A
C1610      H1615   1.078       .  S
C1611      C1612   1.404       .  A
C1611      O1616   1.372       .  S
C1612      C1613   1.399       .  A
C1613      C1614   1.404       .  A
C1613      H1617   1.084       .  S
C1614      O1618   1.373       .  S
O1616      H1620   0.992       .  S
C1621      C1622   1.397       .  A
C1621      C1626   1.408       .  A
C1622      C1623   1.405       .  A
C1623      C1624   1.429       .  A
C1623      O1628   1.373       .  S
C1624      C1625   1.421       .  A
C1625      C1626   1.414       .  A
C1625      H1629   1.080       .  S
C1626      O1630   1.372   1_455  S
O1628      H1632   0.992       .  S
O1630      H1631   0.992       .  S
C1633      C1634   1.399       .  A
C1633      C1638   1.410       .  A
C1634      C1635   1.393       .  A
C1634      H1639   1.084       .  S
C1635      C1636   1.420       .  A
C1635      O1640   1.365       .  S
C1636      C1637   1.422       .  A
C1637      C1638   1.412       .  A
C1637      H1641   1.083       .  S
C1638      O1642   1.371   1_455  S
O1640      H1644   0.993       .  S
O1642      H1643   0.992       .  S
C1645      C1646   1.395       .  A
C1645      C1650   1.413       .  A
C1646      C1647   1.401       .  A
C1646      H1651   1.084       .  S
C1647      C1648   1.426       .  A
C1647      O1652   1.372       .  S
C1648      C1649   1.402       .  A
C1649      C1650   1.399       .  A
C1649      H1653   1.081       .  S
C1650      O1654   1.372       .  S
O1652      H1656   0.992       .  S
O1654      H1655   0.992       .  S
C1657      C1658   1.412       .  A
C1657      C1662   1.420       .  A
C1658      C1659   1.400       .  A
C1658      H1663   1.079       .  S
C1659      C1660   1.402       .  A
C1660      C1661   1.394       .  A
C1661      C1662   1.395       .  A
C1661      H1665   1.084       .  S
C1662      O1666   1.373       .  S
O1664      H1668   0.992   1_545  S
O1666      H1667   0.992       .  S
C1669      C1670   1.411       .  A
C1669      C1674   1.415       .  A
C1670      C1671   1.396       .  A
C1670      H1675   1.083       .  S
C1671      C1672   1.402       .  A
C1671      O1676   1.373       .  S
C1672      C1673   1.401       .  A
C1673      C1674   1.404       .  A
C1673      H1677   1.082       .  S
C1674      O1678   1.371       .  S
O1676      H1680   0.992       .  S
O1678      H1679   0.992       .  S
C1681      C1682   1.397       .  A
C1681      C1686   1.411       .  A
C1682      H1687   1.084       .  S
C1683      C1684   1.425       .  A
C1683      O1688   1.371       .  S
C1684      C1685   1.417       .  A
C1685      H1689   1.079       .  S
C1686      O1690   1.371       .  S
C1693      C1694   1.396       .  A
C1693      C1698   1.407       .  A
C1694      C1695   1.402       .  A
C1694      H1699   1.084       .  S
C1695      C1696   1.436       .  A
C1695      O1700   1.370       .  S
C1696      C1697   1.416       .  A
C1697      C1698   1.408       .  A
C1697      H1701   1.076       .  S
C1698      O1702   1.371       .  S
O1700      H1704   0.991       .  S
O1702      H1703   0.992       .  S
C1705      C1706   1.405       .  A
C1705      C1710   1.407       .  A
C1706      C1707   1.410       .  A
C1706      H1711   1.083       .  S
C1707      C1708   1.413       .  A
C1707      O1712   1.372       .  S
C1708      C1839   1.485       .  S
C1708      C1709   1.404       .  A
C1709      C1710   1.397       .  A
C1709      H1713   1.084       .  S
C1710      O1714   1.372       .  S
O1712      H1716   0.992       .  S
O1714      H1715   0.992       .  S
C1717      C1718   1.396       .  A
C1717      C1722   1.404       .  A
C1718      H1723   1.084       .  S
C1719      C1720   1.420       .  A
C1719      O1724   1.373       .  S
C1721      C1722   1.403       .  A
C1721      H1725   1.077       .  S
C1722      O1726   1.372       .  S
O1724      H1728   0.992       .  S
O1726      H1727   0.992       .  S
C1729      C1730   1.406       .  A
C1729      C1734   1.419       .  A
C1730      C1731   1.399       .  A
C1730      H1735   1.083       .  S
C1731      C1732   1.405       .  A
C1731      O1736   1.372       .  S
C1732      C1733   1.398       .  A
C1733      C1734   1.401       .  A
C1733      H1737   1.084       .  S
C1734      O1738   1.372       .  S
O1736      H1740   0.991       .  S
O1738      H1739   0.992       .  S
C1741      C1742   1.419       .  A
C1741      C1746   1.436       .  A
C1742      C1743   1.414       .  A
C1742      H1747   1.075       .  S
C1743      C1744   1.406       .  A
C1743      O1748   1.371       .  S
C1744      C1745   1.385       .  A
C1745      C1746   1.394       .  A
C1745      H1749   1.085       .  S
C1746      O1750   1.369       .  S
O1748      H1752   0.992       .  S
O1750      H1751   0.992       .  S
C1753      C1754   1.422       .  A
C1753      C1758   1.427       .  A
C1754      C1755   1.390       .  A
C1754      H1759   1.078       .  S
C1755      C1756   1.407       .  A
C1755      O1760   1.373       .  S
C1756      C1757   1.411       .  A
C1757      C1758   1.423       .  A
C1757      H1761   1.083       .  S
C1758      O1762   1.373       .  S
O1760      H1764   0.992       .  S
O1762      H1763   0.992       .  S
C1765      C1766   1.416       .  A
C1765      C1770   1.423       .  A
C1766      C1767   1.402       .  A
C1766      H1771   1.079       .  S
C1767      C1768   1.406       .  A
C1767      O1772   1.371       .  S
C1768      C1769   1.397       .  A
C1769      C1770   1.398       .  A
C1769      H1773   1.084       .  S
C1770      O1774   1.373       .  S
O1772      H1776   0.992       .  S
O1774      H1775   0.992       .  S
C1777      C1778   1.420       .  A
C1777      C1782   1.427       .  A
C1778      C1779   1.421       .  A
C1778      H1783   1.082   1_455  S
C1779      C1780   1.411       .  A
C1779      O1784   1.370       .  S
C1780      C1781   1.401       .  A
C1781      C1782   1.395       .  A
C1781      H1785   1.083       .  S
C1782      O1786   1.374       .  S
O1784      H1788   0.992       .  S
O1786      H1787   0.992       .  S
C1789      C1790   1.419       .  A
C1789      C1794   1.417   1_455  A
C1790      C1791   1.410       .  A
C1790      H1795   1.077       .  S
C1791      C1792   1.409       .  A
C1791      O1796   1.371       .  S
C1792      C1793   1.400       .  A
C1793      C1794   1.393   1_455  A
C1794      O1798   1.363       .  S
O1796      H1800   0.992       .  S
O1798      H1799   0.992       .  S
C1801      C1802   1.419       .  A
C1801      C1806   1.424       .  A
C1802      C2407   1.407       .  A
C1802      H1807   1.083       .  S
C1803      C2406   1.408       .  A
C1803      C1804   1.410       .  A
C1803      O1808   1.371       .  S
C1804      C1805   1.404       .  A
C1805      C2410   1.396       .  A
C1805      H1809   1.083       .  S
C1806      C2409   1.397       .  A
C1806      O1810   1.375       .  S
O1808      H1812   0.992       .  S
O1810      H1811   0.993   1_655  S
C1813      C1964   1.574       .  S
C1813      C2381   1.579   1_655  S
C1813      C2393   1.566   1_655  S
C1813      C2405   1.572       .  S
C1814      C1886   1.570       .  S
C1814      C2345   1.586       .  S
C1814      C2357   1.583       .  S
C1814      C2369   1.564       .  S
Zr1815     O1816   2.438       .  S
Zr1815     O1817   2.443       .  S
Zr1815     O1818   2.467       .  S
Zr1815     O1821   2.456       .  S
Zr1815     O1823   2.385       .  S
Zr1815     O1824   2.393       .  S
Zr1815     O1825   2.413       .  S
Zr1815     O1826   2.420       .  S
O1816      H1872   0.990       .  S
O1816      H1880   0.991       .  S
O1817      C1837   1.285       .  A
O1818      C1839   1.290       .  A
O1819     Zr1829   2.446       .  S
O1819      C1838   1.286       .  A
O1820     Zr1828   2.417       .  S
O1820      C1839   1.283       .  A
O1821      C1838   1.288       .  A
O1822     Zr1830   2.396       .  S
O1822      C1837   1.277       .  A
O1823     Zr1828   2.383       .  S
O1823     Zr1830   2.379       .  S
O1824     Zr1829   2.391       .  S
O1824     Zr1830   2.368       .  S
O1824      H1859   0.966       .  S
O1825     Zr1828   2.394       .  S
O1825     Zr1845   2.391       .  S
O1825      H1862   0.965       .  S
O1826     Zr1829   2.386       .  S
O1826     Zr1845   2.415       .  S
Zr1827     O1852   2.443       .  S
Zr1827     O1846   2.448       .  S
Zr1827     O1854   2.448       .  S
Zr1827     O1842   2.453       .  S
Zr1827     O1833   2.406       .  S
Zr1827     O1834   2.411       .  S
Zr1827     O1835   2.375       .  S
Zr1827     O1836   2.393       .  S
Zr1828     O1847   2.436       .  S
Zr1828     O1840   2.436       .  S
Zr1828     O1841   2.409       .  S
Zr1828     O1834   2.395       .  S
Zr1828     O1835   2.392       .  S
Zr1829     O1831   2.433       .  S
Zr1829     O1853   2.444       .  S
Zr1829     O1855   2.424       .  S
Zr1829     O1833   2.399       .  S
Zr1829     O1836   2.401       .  S
Zr1830     O1856   2.437       .  S
Zr1830     O1857   2.436       .  S
Zr1830     O1832   2.438       .  S
Zr1830     O1833   2.385       .  S
Zr1830     O1834   2.376       .  S
O1831      H1868   0.990       .  S
O1832      H1863   0.990       .  S
O1832      H1877   0.990       .  S
O1834      H1860   0.964       .  S
O1835     Zr1845   2.377       .  S
O1836     Zr1845   2.383       .  S
O1836      H1861   0.966       .  S
C1837      C2321   1.460       .  S
C1838      C2285   1.493       .  S
O1840      H1876   0.990       .  S
O1841      C1843   1.280       .  A
O1842      C1843   1.289       .  A
C1843      C2333   1.487       .  S
O1844     Zr1845   2.439       .  S
O1844      H1873   0.990       .  S
Zr1845     O1848   2.436       .  S
Zr1845     O1849   2.440       .  S
Zr1845     O1850   2.437       .  S
O1846      C1851   1.286       .  A
O1847      H1864   0.990       .  S
O1847      H1879   0.990       .  S
O1848      H1865   0.990       .  S
O1849      H1869   0.990       .  S
O1849      H1878   0.990       .  S
O1850      C1851   1.284       .  A
C1851      C2297   1.494       .  S
O1852      H1871   0.990       .  S
O1852      H1875   0.990       .  S
O1853      H1867   0.991       .  S
O1853      H1874   0.990       .  S
O1854      C1858   1.286       .  A
O1855      C1858   1.282       .  A
O1856      H1866   0.990       .  S
O1857      H1870   0.990       .  S
C1858      C2372   1.475       .  S
C1881      C1882   1.527       .  S
C1881      C1887   1.524       .  S
C1881      C1885   1.531       .  S
C1881      C2261   1.527       .  S
C1882      H1889   1.087       .  S
C1882      C1883   1.357       .  D
C1883      C1884   1.544       .  S
C1883      C2309   1.480       .  S
C1884      C1888   1.540       .  S
C1884      C1886   1.566       .  S
C1884      H1890   1.104       .  S
C1885      H1891   1.068       .  S
C1885      C1886   1.383       .  D
C1887      H1892   1.086       .  S
C1887      C1888   1.357       .  D
C1888      C2276   1.472       .  S
Zr1893     O1894   2.438   1_655  S
Zr1893     O1895   2.436       .  S
Zr1893     O1896   2.471       .  S
Zr1893     O1899   2.453   1_665  S
Zr1893     O1901   2.385       .  S
Zr1893     O1902   2.390       .  S
Zr1893     O1903   2.407       .  S
Zr1893     O1904   2.418   1_655  S
O1894      H1950   0.990   1_455  S
O1894      H1958   0.990       .  S
O1895      C1915   1.283   1_565  A
O1896      C1917   1.292       .  A
O1897     Zr1907   2.451   1_455  S
O1897      C1916   1.288   1_565  A
O1898     Zr1906   2.408       .  S
O1898      C1917   1.280       .  A
O1899      C1916   1.288       .  A
O1900     Zr1908   2.393       .  S
O1900      C1915   1.277   1_565  A
O1901     Zr1906   2.388       .  S
O1901     Zr1908   2.383       .  S
O1902     Zr1907   2.383       .  S
O1902     Zr1908   2.366       .  S
O1902      H1937   0.966       .  S
O1903     Zr1906   2.395       .  S
O1903     Zr1923   2.394   1_655  S
O1903      H1940   0.965       .  S
O1904     Zr1907   2.380   1_455  S
O1904     Zr1923   2.402       .  S
Zr1905     O1930   2.441       .  S
Zr1905     O1924   2.458       .  S
Zr1905     O1932   2.472       .  S
Zr1905     O1920   2.461       .  S
Zr1905     O1911   2.410       .  S
Zr1905     O1912   2.413       .  S
Zr1905     O1913   2.380       .  S
Zr1905     O1914   2.404   1_655  S
Zr1906     O1925   2.435       .  S
Zr1906     O1918   2.435       .  S
Zr1906     O1919   2.409       .  S
Zr1906     O1912   2.397       .  S
Zr1906     O1913   2.379       .  S
Zr1907     O1909   2.434   1_655  S
Zr1907     O1931   2.442       .  S
Zr1907     O1933   2.407       .  S
Zr1907     O1911   2.399       .  S
Zr1907     O1914   2.401   1_655  S
Zr1908     O1934   2.436       .  S
Zr1908     O1935   2.436       .  S
Zr1908     O1910   2.436       .  S
Zr1908     O1911   2.379       .  S
Zr1908     O1912   2.373       .  S
O1909      H1946   0.990       .  S
O1910      H1941   0.990       .  S
O1910      H1955   0.990       .  S
O1912      H1938   0.963       .  S
O1913     Zr1923   2.377   1_655  S
O1914     Zr1923   2.380       .  S
O1914      H1939   0.965       .  S
C1917      C2249   1.486       .  S
O1918      H1954   0.990       .  S
O1919      C1921   1.282       .  A
O1920      C1921   1.289       .  A
C1921      C2273   1.490       .  S
O1922     Zr1923   2.438       .  S
O1922      H1951   0.990       .  S
Zr1923     O1926   2.438       .  S
Zr1923     O1927   2.445       .  S
Zr1923     O1928   2.412       .  S
O1924      C1929   1.286   1_655  A
O1925      H1942   0.990       .  S
O1925      H1957   0.990       .  S
O1926      H1943   0.990       .  S
O1927      H1947   0.990       .  S
O1927      H1956   0.990       .  S
O1928      C1929   1.282       .  A
C1929      C2237   1.497       .  S
O1930      H1949   0.990       .  S
O1930      H1953   0.990       .  S
O1931      H1945   0.991   1_655  S
O1931      H1952   0.991       .  S
O1932      C1936   1.290       .  A
O1933      C1936   1.282       .  A
O1934      H1944   0.990       .  S
O1935      H1948   0.990       .  S
C1936      C2408   1.495   1_556  S
C1959      C1960   1.530       .  S
C1959      C1965   1.521       .  S
C1959      C1963   1.540       .  S
C1959      C2324   1.536       .  S
C1960      H1967   1.083       .  S
C1960      C1961   1.367       .  D
C1961      C1962   1.559       .  S
C1961      C2252   1.507       .  S
C1962      C1966   1.538       .  S
C1962      C1964   1.561       .  S
C1962      H1968   1.098       .  S
C1963      H1969   1.074       .  S
C1963      C1964   1.384       .  D
C1965      H1970   1.087       .  S
C1965      C1966   1.356       .  D
C1966      C2336   1.467       .  S
C1971      C2122   1.558       .  S
C1971      C2213   1.567       .  S
C1971      C2288   1.567       .  S
C1971      C2300   1.582       .  S
C1972      C2044   1.588       .  S
C1972      C2201   1.587       .  S
C1972      C2228   1.580       .  S
C1972      C2240   1.570       .  S
Zr1973     O1974   2.438       .  S
Zr1973     O1975   2.425       .  S
Zr1973     O1976   2.471       .  S
Zr1973     O1979   2.486       .  S
Zr1973     O1981   2.394       .  S
Zr1973     O1982   2.389       .  S
Zr1973     O1983   2.410       .  S
Zr1973     O1984   2.413       .  S
O1974      H2030   0.990       .  S
O1974      H2038   0.991       .  S
O1975      C1995   1.280       .  A
O1976      C1997   1.292       .  A
O1977     Zr1987   2.421       .  S
O1977      C1996   1.284       .  A
O1978     Zr1986   2.407       .  S
O1978      C1997   1.280       .  A
O1979      C1996   1.294       .  A
O1980     Zr1988   2.415       .  S
O1980      C1995   1.275       .  A
O1981     Zr1986   2.385       .  S
O1981     Zr1988   2.368       .  S
O1982     Zr1987   2.378       .  S
O1982     Zr1988   2.370       .  S
O1982      H2017   0.966       .  S
O1983     Zr1986   2.406       .  S
O1983     Zr2003   2.393       .  S
O1983      H2020   0.966       .  S
O1984     Zr1987   2.388       .  S
O1984     Zr2003   2.401       .  S
Zr1985     O2010   2.438       .  S
Zr1985     O2004   2.454       .  S
Zr1985     O2012   2.461       .  S
Zr1985     O2000   2.459       .  S
Zr1985     O1991   2.405       .  S
Zr1985     O1992   2.412       .  S
Zr1985     O1993   2.375       .  S
Zr1985     O1994   2.393       .  S
Zr1986     O2005   2.434       .  S
Zr1986     O1998   2.436       .  S
Zr1986     O1999   2.426       .  S
Zr1986     O1992   2.400       .  S
Zr1986     O1993   2.377       .  S
Zr1987     O1989   2.436       .  S
Zr1987     O2011   2.439       .  S
Zr1987     O2013   2.406       .  S
Zr1987     O1991   2.390       .  S
Zr1987     O1994   2.392       .  S
Zr1988     O2014   2.438       .  S
Zr1988     O2015   2.435       .  S
Zr1988     O1990   2.436       .  S
Zr1988     O1991   2.395       .  S
Zr1988     O1992   2.380       .  S
O1989      H2026   0.990       .  S
O1990      H2021   0.990       .  S
O1990      H2035   0.990       .  S
O1992      H2018   0.965       .  S
O1993     Zr2003   2.374       .  S
O1994     Zr2003   2.384       .  S
O1994      H2019   0.965       .  S
C1995      C2177   1.459       .  S
C1996      C2384   1.505       .  S
C1997      C2168   1.471       .  S
O1998      H2034   0.990       .  S
O1999      C2001   1.285       .  A
O2000      C2001   1.289       .  A
C2001      C2189   1.495       .  S
O2002     Zr2003   2.442   1_655  S
O2002      H2031   0.990       .  S
Zr2003     O2006   2.441       .  S
Zr2003     O2007   2.445   1_455  S
Zr2003     O2008   2.411       .  S
O2004      C2009   1.287       .  A
O2005      H2022   0.990       .  S
O2005      H2037   0.990       .  S
O2006      H2023   0.990       .  S
O2007      H2027   0.990       .  S
O2007      H2036   0.990       .  S
O2008      C2009   1.282       .  A
O2010      H2029   0.990       .  S
O2010      H2033   0.990       .  S
O2011      H2025   0.990       .  S
O2011      H2032   0.990       .  S
O2012      C2016   1.290       .  A
O2013      C2016   1.280       .  A
O2014      H2024   0.990       .  S
O2015      H2028   0.990       .  S
C2016      C2204   1.486       .  S
C2039      C2040   1.527       .  S
C2039      C2045   1.518       .  S
C2039      C2043   1.543       .  S
C2039      C2141   1.537       .  S
C2040      H2047   1.086       .  S
C2040      C2041   1.363       .  D
C2041      C2042   1.549       .  S
C2041      C2165   1.500       .  S
C2042      C2046   1.537       .  S
C2042      C2044   1.571       .  S
C2042      H2048   1.104       .  S
C2043      H2049   1.058       .  S
C2043      C2044   1.388       .  D
C2045      H2050   1.086       .  S
C2045      C2046   1.356       .  D
C2046      C2153   1.464       .  S
Zr2051     O2052   2.438       .  S
Zr2051     O2053   2.454       .  S
Zr2051     O2054   2.476       .  S
Zr2051     O2057   2.458       .  S
Zr2051     O2059   2.380       .  S
Zr2051     O2060   2.392       .  S
Zr2051     O2061   2.414       .  S
Zr2051     O2062   2.421       .  S
O2052      H2108   0.990       .  S
O2052      H2116   0.990       .  S
O2053      C2073   1.287       .  A
O2054      C2075   1.292       .  A
O2055     Zr2065   2.433       .  S
O2055      C2074   1.286       .  A
O2056     Zr2064   2.408       .  S
O2056      C2075   1.279       .  A
O2057      C2074   1.289       .  A
O2058     Zr2066   2.406       .  S
O2058      C2073   1.277       .  A
O2059     Zr2064   2.386       .  S
O2059     Zr2066   2.378       .  S
O2060     Zr2065   2.392       .  S
O2060     Zr2066   2.367       .  S
O2060      H2095   0.966       .  S
O2061     Zr2064   2.397       .  S
O2061     Zr2081   2.400       .  S
O2061      H2098   0.965       .  S
O2062     Zr2065   2.389       .  S
O2062     Zr2081   2.405       .  S
Zr2063     O2088   2.442       .  S
Zr2063     O2090   2.451       .  S
Zr2063     O2069   2.405       .  S
Zr2063     O2070   2.403       .  S
Zr2063     O2071   2.380       .  S
Zr2063     O2072   2.391       .  S
Zr2064     O2083   2.433       .  S
Zr2064     O2076   2.436       .  S
Zr2064     O2077   2.407       .  S
Zr2064     O2070   2.398       .  S
Zr2064     O2071   2.387       .  S
Zr2065     O2067   2.434       .  S
Zr2065     O2089   2.438       .  S
Zr2065     O2091   2.425       .  S
Zr2065     O2069   2.395       .  S
Zr2065     O2072   2.398       .  S
Zr2066     O2092   2.439       .  S
Zr2066     O2093   2.435       .  S
Zr2066     O2068   2.439       .  S
Zr2066     O2069   2.394       .  S
Zr2066     O2070   2.371       .  S
O2067      H2104   0.990       .  S
O2068      H2099   0.990       .  S
O2068      H2113   0.990       .  S
O2070      H2096   0.963       .  S
O2071     Zr2081   2.381       .  S
O2072     Zr2081   2.378       .  S
O2072      H2097   0.965       .  S
C2073      C2144   1.470       .  S
C2074      C2360   1.501       .  S
O2076      H2112   0.990       .  S
O2078      C2079   1.284       .  A
C2079      C2156   1.474       .  S
O2080     Zr2081   2.440       .  S
O2080      H2109   0.990       .  S
Zr2081     O2084   2.438       .  S
Zr2081     O2085   2.439       .  S
Zr2081     O2086   2.435       .  S
O2082      C2087   1.283       .  A
O2083      H2100   0.990       .  S
O2083      H2115   0.990       .  S
O2084      H2101   0.990       .  S
O2085      H2105   0.990       .  S
O2085      H2114   0.990       .  S
C2087      C2348   1.481       .  S
O2088      H2107   0.990       .  S
O2088      H2111   0.991       .  S
O2089      H2103   0.990       .  S
O2089      H2110   0.990       .  S
O2090      C2094   1.285       .  A
O2091      C2094   1.282       .  A
O2092      H2102   0.990       .  S
O2093      H2106   0.990       .  S
C2094      C2216   1.478       .  S
C2117      C2118   1.525       .  S
C2117      C2123   1.526       .  S
C2117      C2121   1.534       .  S
C2117      C2180   1.523       .  S
C2118      H2125   1.085       .  S
C2118      C2119   1.366       .  D
C2119      C2120   1.559       .  S
C2119      C2132   1.510       .  S
C2120      C2124   1.544       .  S
C2120      C2122   1.571       .  S
C2120      H2126   1.104       .  S
C2121      H2127   1.081       .  S
C2121      C2122   1.378       .  D
C2123      H2128   1.087       .  S
C2123      C2124   1.353       .  D
C2124      C2192   1.481       .  S
C2129      C2130   1.404       .  A
C2129      C2134   1.400       .  A
C2130      C2131   1.408       .  A
C2130      H2135   1.084       .  S
C2131      C2132   1.415       .  A
C2131      O2136   1.370       .  S
C2132      C2133   1.416       .  A
C2133      C2134   1.399       .  A
C2133      H2137   1.082       .  S
O2136      H2140   0.992       .  S
C2141      C2142   1.411       .  A
C2141      C2146   1.423       .  A
C2142      C2143   1.405       .  A
C2142      H2147   1.078       .  S
C2143      C2144   1.407       .  A
C2143      O2148   1.372       .  S
C2144      C2145   1.394       .  A
C2145      C2146   1.397       .  A
C2145      H2149   1.085       .  S
C2146      O2150   1.373       .  S
O2148      H2152   0.992       .  S
O2150      H2151   0.992       .  S
C2153      C2154   1.399       .  A
C2153      C2158   1.404       .  A
C2154      C2155   1.399       .  A
C2154      H2159   1.084       .  S
C2155      C2156   1.413       .  A
C2155      O2160   1.372       .  S
C2156      C2157   1.404       .  A
C2157      C2158   1.389       .  A
C2157      H2161   1.083       .  S
C2158      O2162   1.374       .  S
O2160      H2164   0.992       .  S
O2162      H2163   0.992       .  S
C2165      C2166   1.411       .  A
C2165      C2170   1.414       .  A
C2166      C2167   1.400       .  A
C2166      H2171   1.083       .  S
C2167      C2168   1.403       .  A
C2167      O2172   1.372       .  S
C2168      C2169   1.401       .  A
C2169      C2170   1.405       .  A
C2169      H2173   1.084       .  S
C2170      O2174   1.371       .  S
O2172      H2176   0.992       .  S
O2174      H2175   0.992       .  S
C2177      C2178   1.394       .  A
C2177      C2182   1.405       .  A
C2178      C2179   1.389       .  A
C2178      H2183   1.085       .  S
C2179      C2180   1.419       .  A
C2179      O2184   1.374       .  S
C2180      C2181   1.409       .  A
C2181      C2182   1.401       .  A
C2181      H2185   1.078       .  S
C2182      O2186   1.372       .  S
O2184      H2188   0.992       .  S
O2186      H2187   0.992       .  S
C2189      C2190   1.409       .  A
C2190      H2195   1.083       .  S
C2191      C2192   1.407       .  A
C2191      O2196   1.373       .  S
C2192      C2193   1.402       .  A
C2193      C2194   1.407   1_565  A
C2193      H2197   1.084       .  S
C2194      O2198   1.371       .  S
O2198      H2199   0.992       .  S
C2201      C2202   1.425       .  A
C2201      C2206   1.433       .  A
C2202      H2207   1.074       .  S
C2203      C2204   1.397       .  A
C2203      O2208   1.372       .  S
C2204      C2205   1.401       .  A
C2205      H2209   1.084       .  S
C2206      O2210   1.379       .  S
O2208      H2212   0.992       .  S
O2210      H2211   0.993       .  S
C2213      C2214   1.418       .  A
C2213      C2218   1.425       .  A
C2214      C2215   1.401       .  A
C2214      H2219   1.078       .  S
C2215      C2216   1.404       .  A
C2215      O2220   1.372       .  S
C2216      C2217   1.399       .  A
C2217      C2218   1.405       .  A
C2217      H2221   1.084       .  S
C2218      O2222   1.373       .  S
O2220      H2224   0.992       .  S
C2225      C2226   1.399       .  A
C2225      C2230   1.409       .  A
C2226      C2227   1.406       .  A
C2227      C2228   1.428       .  A
C2227      O2232   1.373       .  S
C2228      C2229   1.420       .  A
C2229      C2230   1.412       .  A
C2229      H2233   1.080       .  S
C2230      O2234   1.371   1_455  S
O2232      H2236   0.992       .  S
O2234      H2235   0.991       .  S
C2237      C2238   1.401       .  A
C2237      C2242   1.411       .  A
C2238      C2239   1.393       .  A
C2238      H2243   1.083       .  S
C2239      C2240   1.415       .  A
C2239      O2244   1.364       .  S
C2240      C2241   1.423       .  A
C2241      C2242   1.412       .  A
C2241      H2245   1.083       .  S
C2242      O2246   1.371   1_455  S
O2244      H2248   0.993       .  S
O2246      H2247   0.992       .  S
C2249      C2250   1.397       .  A
C2249      C2254   1.414       .  A
C2250      C2251   1.404       .  A
C2250      H2255   1.084       .  S
C2251      C2252   1.425       .  A
C2251      O2256   1.372       .  S
C2252      C2253   1.404       .  A
C2253      C2254   1.401       .  A
C2253      H2257   1.081       .  S
C2254      O2258   1.372       .  S
O2256      H2260   0.992       .  S
O2258      H2259   0.992       .  S
C2261      C2262   1.412       .  A
C2261      C2266   1.420       .  A
C2262      C2263   1.399       .  A
C2262      H2267   1.079       .  S
C2263      C2264   1.402       .  A
C2264      C2265   1.394       .  A
C2265      C2266   1.394       .  A
C2265      H2269   1.084       .  S
C2266      O2270   1.373       .  S
O2268      H2272   0.992   1_545  S
O2270      H2271   0.992       .  S
C2273      C2274   1.411       .  A
C2273      C2278   1.413       .  A
C2274      C2275   1.395       .  A
C2274      H2279   1.083       .  S
C2275      C2276   1.402       .  A
C2275      O2280   1.373       .  S
C2276      C2277   1.402       .  A
C2277      C2278   1.403       .  A
C2277      H2281   1.081       .  S
C2278      O2282   1.371       .  S
O2280      H2284   0.992       .  S
O2282      H2283   0.992       .  S
C2285      C2286   1.398       .  A
C2285      C2290   1.409       .  A
C2286      H2291   1.084       .  S
C2287      C2288   1.425       .  A
C2287      O2292   1.370       .  S
C2288      C2289   1.416       .  A
C2289      H2293   1.080       .  S
C2290      O2294   1.371       .  S
C2297      C2298   1.396       .  A
C2297      C2302   1.408       .  A
C2298      C2299   1.402       .  A
C2298      H2303   1.084       .  S
C2299      C2300   1.437       .  A
C2299      O2304   1.370       .  S
C2300      C2301   1.417       .  A
C2301      C2302   1.410       .  A
C2301      H2305   1.077       .  S
C2302      O2306   1.371       .  S
O2304      H2308   0.991       .  S
O2306      H2307   0.992       .  S
C2309      C2310   1.404       .  A
C2309      C2314   1.406       .  A
C2310      C2311   1.409       .  A
C2310      H2315   1.083       .  S
C2311      C2312   1.412       .  A
C2311      O2316   1.372       .  S
C2312      C2313   1.404       .  A
C2313      C2314   1.395       .  A
C2313      H2317   1.084       .  S
C2314      O2318   1.372       .  S
O2316      H2320   0.992       .  S
O2318      H2319   0.992       .  S
C2321      C2322   1.394       .  A
C2321      C2326   1.404       .  A
C2322      H2327   1.084       .  S
C2323      C2324   1.420       .  A
C2323      O2328   1.373       .  S
C2325      C2326   1.401       .  A
C2325      H2329   1.077       .  S
C2326      O2330   1.373       .  S
O2328      H2332   0.992       .  S
O2330      H2331   0.992       .  S
C2333      C2334   1.406       .  A
C2333      C2338   1.419       .  A
C2334      C2335   1.399       .  A
C2334      H2339   1.083       .  S
C2335      C2336   1.405       .  A
C2335      O2340   1.372       .  S
C2336      C2337   1.396       .  A
C2337      C2338   1.397       .  A
C2337      H2341   1.084       .  S
C2338      O2342   1.372       .  S
O2340      H2344   0.991       .  S
O2342      H2343   0.992       .  S
C2345      C2346   1.419       .  A
C2345      C2350   1.433       .  A
C2346      C2347   1.416       .  A
C2346      H2351   1.076       .  S
C2347      C2348   1.408       .  A
C2347      O2352   1.371       .  S
C2348      C2349   1.387       .  A
C2349      C2350   1.396       .  A
C2349      H2353   1.084       .  S
C2350      O2354   1.368       .  S
O2352      H2356   0.991       .  S
O2354      H2355   0.992       .  S
C2357      C2358   1.422       .  A
C2357      C2362   1.426       .  A
C2358      C2359   1.390       .  A
C2358      H2363   1.078       .  S
C2359      C2360   1.406       .  A
C2359      O2364   1.373       .  S
C2360      C2361   1.410       .  A
C2361      C2362   1.421       .  A
C2361      H2365   1.083       .  S
C2362      O2366   1.372       .  S
O2364      H2368   0.992       .  S
O2366      H2367   0.992       .  S
C2369      C2370   1.417       .  A
C2369      C2374   1.422       .  A
C2370      C2371   1.400       .  A
C2370      H2375   1.079       .  S
C2371      C2372   1.404       .  A
C2371      O2376   1.371       .  S
C2372      C2373   1.399       .  A
C2373      C2374   1.400       .  A
C2373      H2377   1.084       .  S
C2374      O2378   1.372       .  S
O2376      H2380   0.992       .  S
O2378      H2379   0.992       .  S
C2381      C2382   1.420       .  A
C2381      C2386   1.428       .  A
C2382      C2383   1.422       .  A
C2382      H2387   1.082   1_455  S
C2383      C2384   1.411       .  A
C2383      O2388   1.370       .  S
C2384      C2385   1.402       .  A
C2385      C2386   1.396       .  A
C2385      H2389   1.083       .  S
C2386      O2390   1.373       .  S
O2388      H2392   0.992       .  S
O2390      H2391   0.992       .  S
C2393      C2394   1.419       .  A
C2393      C2398   1.418   1_455  A
C2394      C2395   1.410       .  A
C2394      H2399   1.079       .  S
C2395      C2396   1.411       .  A
C2395      O2400   1.371       .  S
C2396      C2397   1.399       .  A
C2397      C2398   1.394   1_455  A
C2398      O2402   1.363       .  S
O2400      H2404   0.992       .  S
O2402      H2403   0.992       .  S
C2405      C2406   1.420       .  A
C2405      C2410   1.423       .  A
C2406      H2411   1.083       .  S
C2407      C2408   1.409       .  A
C2407      O2412   1.370       .  S
C2408      C2409   1.404       .  A
C2409      H2413   1.083       .  S
C2410      O2414   1.375       .  S
O2412      H2416   0.992       .  S
O2414      H2415   0.993       .  S
