geometry optimzed in LAMMPS
_audit_creation_date              2020-11-30 
_audit_creation_method            'lammps2cif' 
_symmetry_space_group_name_H-M    'P1' 
_symmetry_Int_Tables_number       1 
_symmetry_cell_setting            triclinic 
loop_ 
_symmetry_equiv_pos_as_xyz 
  x,y,z 
_cell_length_a                    41.95301051 
_cell_length_b                    42.07785292648162 
_cell_length_c                    71.45443523219714 
_cell_angle_alpha                 91.62575170936037 
_cell_angle_beta                  89.58736538136559 
_cell_angle_gamma                 119.48597036077624 
loop_ 
_atom_site_label 
_atom_site_type_symbol 
_atom_site_fract_x 
_atom_site_fract_y 
_atom_site_fract_z 
_atom_site_charge 
O1          O  0.39229949  0.24503770  0.85641272    -0.77400
C2          C  0.37006718  0.13224987  0.86128464     0.83700
O3          O  0.37357201  0.19758988  0.79270973    -0.78500
O4          O  0.27934589  0.08615693  0.82057054    -0.80000
O5          O  0.25912391  0.17017283  0.86036345    -0.79800
O6          O  0.34117459  0.24866761  0.85841738    -0.78400
Zn7        Zn  0.37790801  0.19863153  0.84067905     1.55700
O8          O  0.25649982  0.11594594  0.85951221    -0.79800
Cd9        Cd  0.30346873  0.20250426  0.84372873     1.59700
Cd10       Cd  0.32203579  0.17280838  0.80475394     1.59600
O11         O  0.28349331  0.22058139  0.82291645    -0.79800
O12         O  0.32664321  0.17469077  0.83292068    -1.90300
Cd13       Cd  0.30031713  0.12400775  0.84266253     1.59900
O14         O  0.29447118  0.20001372  0.79604498    -0.79800
O15         O  0.33576243  0.11336599  0.85794431    -0.78400
C16         C  0.40536070  0.21132437  0.80011034     0.84100
C17         C  0.37513880  0.26155566  0.86189751     0.83800
O18         O  0.38900219  0.16467443  0.85544922    -0.77400
C19         C  0.24378684  0.13671480  0.86478010     0.84600
O20         O  0.40972315  0.21279688  0.81780510    -0.77500
C21         C  0.28150587  0.21764274  0.80515225     0.84700
C22         C  0.27961311  0.08819630  0.80278144     0.85000
O23         O  0.29466057  0.11878291  0.79464698    -0.79900
C24         C  0.15199511  0.33536679  0.73942109    -0.01400
C25         C  0.99415519  0.01030645  0.92809146    -0.01400
O26         O  0.49477096  0.41675987  0.47534210    -0.77400
C27         C  0.08432729  0.02706787  0.46844606     0.83700
O28         O  0.02883250  0.46676448  0.53959080    -0.78500
O29         O  0.04617994  0.07748519  0.51096215    -0.80000
O30         O  0.43698910  0.99543239  0.47686791    -0.79800
O31         O  0.44252713  0.41773908  0.47246699    -0.78400
Zn32       Zn  0.02691432  0.46098233  0.49188842     1.55700
O33         O  0.49026324  0.04648896  0.47415007    -0.79800
Cd34       Cd  0.44978951  0.45996463  0.49036314     1.59700
Cd35       Cd  0.00120352  0.49129810  0.52804344     1.59600
O36         O  0.41407666  0.43746574  0.51225856    -0.79800
O37         O  0.00115244  0.48680432  0.49996351    -1.90300
Cd38       Cd  0.02675490  0.03832276  0.48962970     1.59900
O39         O  0.44784809  0.46317623  0.53803865    -0.79800
O40         O  0.06996600  0.04686997  0.47255003    -0.78400
C41         C  0.04202530  0.44790067  0.53207551     0.84100
C42         C  0.46264179  0.40370036  0.46847299     0.83800
O43         O  0.07152078  0.99513197  0.47489842    -0.77400
C44         C  0.45604369  0.02762347  0.47077804     0.84600
O45         O  0.04239352  0.44354338  0.51435328    -0.77500
C46         C  0.41719987  0.44208023  0.52999095     0.84700
C47         C  0.04486657  0.07723453  0.52879852     0.85000
O48         O  0.02944713  0.04722587  0.53750539    -0.79900
C49         C  0.33250980  0.15240467  0.40560872    -0.01400
C50         C  0.17066641  0.33011757  0.59519861    -0.01400
O51         O  0.24631449  0.39625157  0.14169144    -0.77400
C52         C  0.13541515  0.37504471  0.13617834     0.83700
O53         O  0.20399376  0.39156213  0.20551157    -0.78500
O54         O  0.09213753  0.29289705  0.17856854    -0.80000
O55         O  0.17248595  0.26231445  0.14407850    -0.79800
O56         O  0.24837892  0.34437595  0.14000443    -0.78400
Zn57       Zn  0.20300463  0.38631652  0.15780594     1.55700
O58         O  0.11944290  0.26190236  0.14210285    -0.79800
Cd59       Cd  0.20705532  0.31138551  0.15814429     1.59700
Cd60       Cd  0.17907749  0.33765852  0.19523689     1.59600
O61         O  0.23009012  0.29953521  0.18075310    -0.79800
O62         O  0.17980945  0.33674925  0.16702757    -1.90300
Cd63       Cd  0.12872030  0.30907017  0.15689368     1.59900
O64         O  0.20693665  0.31251583  0.20617055    -0.79800
O65         O  0.11646810  0.34160804  0.14046251    -0.78400
C66         C  0.21884427  0.42200323  0.19723455     0.84100
C67         C  0.26053834  0.37745066  0.13542695     0.83800
O68         O  0.16840698  0.39483945  0.14174896    -0.77400
C69         C  0.13908945  0.24695212  0.13876149     0.84600
O70         O  0.22024616  0.42317584  0.17940732    -0.77500
C71         C  0.22642011  0.30020620  0.19850132     0.84700
C72         C  0.09460245  0.29514461  0.19636344     0.85000
O73         O  0.12548904  0.31082626  0.20483875    -0.79900
C74         C  0.01031795  0.99482253  0.07231831    -0.01400
C75         C  0.34792174  0.17189990  0.26139044    -0.01400
C76         C  0.40997045  0.47553700  0.08424788    -0.13300
C77         C  0.39669984  0.44460315  0.09512850     0.17100
C78         C  0.42012774  0.43110851  0.09946515     0.03400
C79         C  0.45606600  0.44875971  0.09312573    -0.11800
C80         C  0.46982497  0.47798324  0.08047979    -0.02800
C81         C  0.44601562  0.49291452  0.07740607     0.02700
C82         C  0.35992507  0.42872295  0.10369799     0.09500
N83         N  0.40852634  0.40062315  0.11135337     0.65900
H84         H  0.47366948  0.44061148  0.10008900     0.18800
N85         N  0.45709207  0.02549495  0.07014283     0.76300
H86         H  0.39254186  0.48745086  0.08172323     0.10300
C87         C  0.35099944  0.44941707  0.11635973     0.04000
C88         C  0.31746711  0.43260828  0.12572097    -0.04700
C89         C  0.29285778  0.39509036  0.12308874    -0.23100
C90         C  0.30106760  0.37483439  0.10972032     0.13200
C91         C  0.33446952  0.39175932  0.10021841    -0.12300
N92         N  0.37683284  0.48674634  0.12092615     0.64900
H93         H  0.31171454  0.44854833  0.13598829     0.12700
N94         N  0.27551092  0.33733062  0.10538931     0.61500
H95         H  0.34082547  0.37586781  0.09020391     0.08900
O96         O  0.47683905  0.05429971  0.07967946    -0.39900
O97         O  0.43881843  0.02705819  0.05657099    -0.39100
O98         O  0.40443389  0.37071520  0.10469591    -0.39100
O99         O  0.40550912  0.40442105  0.12874007    -0.36800
O100        O  0.24550772  0.32892002  0.09743505    -0.37700
O101        O  0.28457505  0.31315985  0.10751814    -0.33900
O102        O  0.37535358  0.00860799  0.12498310    -0.35300
O103        O  0.41057496  0.98674360  0.13318404    -0.39600
C104        C  0.04788465  0.07380218  0.11086581    -0.13300
C105        C  0.07005245  0.10457097  0.10051826     0.17100
C106        C  0.07730351  0.09972238  0.08185694     0.03400
C107        C  0.06027754  0.06475219  0.07347265    -0.11800
C108        C  0.03408604  0.03324393  0.08288124    -0.02800
C109        C  0.03155230  0.03844772  0.10264053     0.02700
C110        C  0.08780145  0.14130209  0.10979707     0.09500
N111        N  0.10138535  0.13032876  0.07102973     0.65900
H112        H  0.06774295  0.06320914  0.05918159     0.18800
N113        N  0.01534594  0.00853508  0.11500917     0.76300
H114        H  0.04459544  0.07716267  0.12572554     0.10300
C115        C  0.06777695  0.15919288  0.11414640     0.04000
C116        C  0.08493496  0.19342442  0.12344761    -0.04700
C117        C  0.12224438  0.21060245  0.12863606    -0.23100
C118        C  0.14224359  0.19232425  0.12413810     0.13200
C119        C  0.12494106  0.15816517  0.11472783    -0.11100
N120        N  0.03007803  0.14310727  0.10887607     0.64900
H121        H  0.06879607  0.20656096  0.12658353     0.12700
N122        N  0.17994289  0.20758150  0.12924130     0.61500
H123        H  0.14047886  0.14440528  0.11150423     0.08900
O124        O  0.03115858  0.99010443  0.11762713    -0.39900
O125        O  0.99173786  0.00669468  0.12664453    -0.39100
O126        O  0.13298901  0.13565830  0.06711939    -0.39100
O127        O  0.08947431  0.14915352  0.06340448    -0.36800
O128        O  0.18834487  0.20122205  0.14508124    -0.37700
O129        O  0.20431606  0.22189354  0.11693691    -0.33900
O130        O  0.00548975  0.12861478  0.12105851    -0.35300
O131        O  0.02151106  0.14649392  0.09245531    -0.39600
C132        C  0.06959700  0.40485912  0.11846759    -0.13300
C133        C  0.08511928  0.41995844  0.10118056     0.17100
C134        C  0.11782946  0.42059267  0.09558986     0.03400
C135        C  0.13466811  0.40710381  0.10752570    -0.11800
C136        C  0.11853016  0.39132956  0.12454314    -0.02800
C137        C  0.08569918  0.39021549  0.12998659     0.02700
C138        C  0.06729656  0.43621115  0.08980756     0.09500
N139        N  0.13311102  0.43293271  0.07748242     0.65900
H140        H  0.15956376  0.40738272  0.10310812     0.18800
N141        N  0.06925638  0.37566693  0.14757191     0.76300
H142        H  0.04504809  0.40493113  0.12320485     0.10300
C143        C  0.02974632  0.41660240  0.08566781     0.04000
C144        C  0.01241901  0.43438723  0.07797672    -0.04700
C145        C  0.03086745  0.47247682  0.07481109    -0.23100
C146        C  0.06997380  0.48919264  0.07493904     0.13200
C147        C  0.08739548  0.47207802  0.08364988    -0.12300
N148        N  0.00850803  0.37844806  0.08936848     0.64900
H149        H  0.48385794  0.41753886  0.07527056     0.12700
N150        N  0.09277881  0.02079979  0.06381636     0.61500
H151        H  0.11679541  0.48658552  0.08521457     0.08900
O152        O  0.03933045  0.34604649  0.14802289    -0.39900
O153        O  0.08244080  0.39439302  0.16247438    -0.39100
O154        O  0.16701916  0.45440707  0.07580851    -0.39100
O155        O  0.11346194  0.41939269  0.06298404    -0.36800
O156        O  0.08592492  0.01950847  0.04654188    -0.37700
O157        O  0.12329142  0.04552817  0.07009651    -0.33900
O158        O  0.47978281  0.36673531  0.09902876    -0.35300
O159        O  0.01687729  0.35611799  0.08177304    -0.39600
C160        C  0.31153962  0.21794808  0.22725034    -0.13300
C161        C  0.30002462  0.23712779  0.23921558     0.17100
C162        C  0.30336735  0.23493265  0.25869843     0.03400
C163        C  0.31794076  0.21376046  0.26571331    -0.11800
C164        C  0.33024674  0.19457418  0.25373541    -0.02800
C165        C  0.32745646  0.19813140  0.23400548     0.02700
C166        C  0.28366758  0.25804324  0.23071259     0.09500
N167        N  0.29376234  0.25543912  0.27159280     0.65900
H168        H  0.32144164  0.21456567  0.28068708     0.18800
N169        N  0.34161152  0.18282622  0.22034616     0.76300
H170        H  0.30854639  0.21859442  0.21223712     0.10300
C171        C  0.30023148  0.28036840  0.21515777     0.04000
C172        C  0.28092566  0.29347284  0.20492326    -0.04700
C173        C  0.24595781  0.28662832  0.21033858    -0.23100
C174        C  0.23039158  0.26650270  0.22661366     0.13200
C175        C  0.24899432  0.25195970  0.23644395    -0.12300
N176        N  0.33678282  0.29013265  0.20964008     0.64900
H177        H  0.29371979  0.30980852  0.19280020     0.12700
N178        N  0.19466521  0.25842903  0.23258383     0.61500
H179        H  0.23548940  0.23446583  0.24809455     0.08900
O180        O  0.31994177  0.15289929  0.21218095    -0.39900
O181        O  0.37109060  0.20409666  0.21226690    -0.39100
O182        O  0.27161190  0.23950730  0.28464829    -0.39100
O183        O  0.31060044  0.28987278  0.27129202    -0.36800
O184        O  0.16684844  0.23056733  0.22592832    -0.37700
O185        O  0.19119391  0.27600546  0.24630371    -0.33900
O186        O  0.34378355  0.28712185  0.19268103    -0.35300
O187        O  0.36260938  0.30427077  0.22147694    -0.39600
C188        C  0.24456767  0.49285266  0.23740734    -0.13300
C189        C  0.26467221  0.02311770  0.22856139     0.17100
C190        C  0.26665498  0.02221081  0.20889457     0.03400
C191        C  0.25925949  0.48977720  0.19942662    -0.11800
C192        C  0.23530599  0.45713706  0.20835871    -0.02800
C193        C  0.22803162  0.45904842  0.22763820     0.02700
C194        C  0.28208386  0.05827015  0.23926010     0.09500
N195        N  0.28665915  0.05516282  0.19878485     0.65900
H196        H  0.26580551  0.48921019  0.18476852     0.18800
N197        N  0.20327460  0.42717693  0.23744522     0.76300
H198        H  0.23853600  0.49401753  0.25210402     0.10300
C199        C  0.26854175  0.08270407  0.23845319     0.04000
C200        C  0.28875186  0.11780525  0.24649339    -0.04700
C201        C  0.32377831  0.13049134  0.25483998    -0.23100
C202        C  0.33371078  0.10301391  0.25809742     0.13200
C203        C  0.31364165  0.06808538  0.24971418    -0.12300
N204        N  0.23402550  0.07209818  0.22968302     0.64900
H205        H  0.27626813  0.13489195  0.24596548     0.12700
N206        N  0.36404597  0.10949024  0.26966878     0.61500
H207        H  0.32307197  0.04848552  0.25123654     0.08900
O208        O  0.16975519  0.41790805  0.23811576    -0.39900
O209        O  0.21567147  0.41203416  0.24788796    -0.39100
O210        O  0.32084240  0.07448969  0.20111597    -0.39100
O211        O  0.27116409  0.06238802  0.18581889    -0.36800
O212        O  0.35862789  0.10450045  0.28699354    -0.37700
O213        O  0.38987078  0.10628168  0.26238299    -0.33900
O214        O  0.20513878  0.04598917  0.23605620    -0.35300
O215        O  0.23176140  0.09165137  0.21726431    -0.39600
C216        C  0.52387629  0.24917172  0.23450622    -0.13300
C217        C  0.49256258  0.24614333  0.22592497     0.17100
C218        C  0.99515470  0.26051971  0.20810745     0.03400
C219        C  0.02865553  0.27646115  0.19880471    -0.11800
C220        C  0.06018627  0.27920569  0.20718726    -0.02800
C221        C  0.05772142  0.26598467  0.22540968     0.02700
C222        C  0.45703298  0.22697798  0.23545535     0.09500
N223        N  0.96386968  0.25881715  0.19927144     0.65900
H224        H  0.03000111  0.28694709  0.18496722     0.18800
N225        N  0.08873514  0.26746582  0.23441179     0.76300
H226        H  0.52192151  0.23815298  0.24826003     0.10300
C227        C  0.43340702  0.18966074  0.23202986     0.04000
C228        C  0.39899770  0.17236398  0.24041089    -0.04700
C229        C  0.38722498  0.19122066  0.25292272    -0.23100
C230        C  0.41128630  0.22986924  0.25546796     0.13200
C231        C  0.44571784  0.24678302  0.24695129    -0.12300
N232        N  0.44344652  0.16924200  0.21934763     0.64900
H233        H  0.38120323  0.14444011  0.23597823     0.12700
N234        N  0.40026062  0.25321706  0.26511227     0.61500
H235        H  0.46346570  0.27599158  0.24893894     0.08900
O236        O  0.09504294  0.24121516  0.23222423    -0.39900
O237        O  0.10651089  0.29224485  0.24658261    -0.39100
O238        O  0.95686335  0.28449465  0.20202076    -0.39100
O239        O  0.44687264  0.23489316  0.18654402    -0.36800
O240        O  0.39947607  0.25437953  0.28275031    -0.37700
O241        O  0.39846827  0.27777196  0.25619413    -0.33900
O242        O  0.46155531  0.15486968  0.22523977    -0.35300
O243        O  0.43009176  0.16145713  0.20300317    -0.39600
C244        C  0.32074430  0.17265775  0.35380005    -0.13300
C245        C  0.33665682  0.15532246  0.34360785     0.17100
C246        C  0.35183018  0.13729697  0.35340547     0.03400
C247        C  0.35095925  0.13711810  0.37305070    -0.11800
C248        C  0.33326706  0.15284551  0.38364082    -0.02800
C249        C  0.31889256  0.17184553  0.37337025     0.02700
C250        C  0.34000865  0.15930362  0.32290365     0.09500
N251        N  0.36778888  0.11849635  0.34357338     0.65900
H252        H  0.36495935  0.12482940  0.37979743     0.18800
N253        N  0.30421516  0.19255485  0.38244897     0.76300
H254        H  0.31042411  0.18800508  0.34649030     0.10300
C255        C  0.30933538  0.14939162  0.31141857     0.04000
C256        C  0.31365893  0.15472864  0.29213340    -0.04700
C257        C  0.34833367  0.17070583  0.28335209    -0.23100
C258        C  0.37959556  0.18078547  0.29535871     0.13200
C259        C  0.37467487  0.17529782  0.31473557    -0.12300
N260        N  0.27329984  0.13316739  0.31909153     0.64900
H261        H  0.28915243  0.14587502  0.28375317     0.12700
N262        N  0.41646676  0.19534531  0.28876433     0.61500
H263        H  0.39849658  0.18343337  0.32357798     0.08900
O264        O  0.26997106  0.17846936  0.38404494    -0.39900
O265        O  0.32347957  0.22693387  0.38306368    -0.39100
O266        O  0.39976128  0.12518157  0.34765627    -0.39100
O267        O  0.34846124  0.09228965  0.33237346    -0.36800
O268        O  0.42606776  0.17427030  0.28084531    -0.37700
O269        O  0.44116335  0.22512948  0.29585889    -0.33900
O270        O  0.25450263  0.14895680  0.31775692    -0.35300
O271        O  0.25905201  0.10164738  0.32572501    -0.39600
C272        C  0.16005143  0.08667346  0.43472236    -0.13300
C273        C  0.18266917  0.07097859  0.43545600     0.17100
C274        C  0.17180037  0.03960370  0.44602906     0.03400
C275        C  0.13934669  0.02527642  0.45630840    -0.11800
C276        C  0.11711062  0.04165741  0.45622456    -0.02800
C277        C  0.12745235  0.07231798  0.44491499     0.02700
C278        C  0.21982790  0.09061516  0.42744946     0.09500
N279        N  0.19385153  0.02238282  0.44662442     0.65900
H280        H  0.13195861  0.00159872  0.46468359     0.18800
N281        N  0.10536020  0.08937183  0.44365930     0.76300
H282        H  0.16838318  0.11096818  0.42669243     0.10300
C283        C  0.22582767  0.09390419  0.40811653     0.04000
C284        C  0.26161464  0.11343451  0.40129072    -0.04700
C285        C  0.29249221  0.13150186  0.41342430    -0.23100
C286        C  0.28549267  0.12705186  0.43313498     0.13200
C287        C  0.24967388  0.10714460  0.43969540    -0.12300
N288        N  0.19586505  0.07632407  0.39519904     0.64900
H289        H  0.26463611  0.11293229  0.38629986     0.12700
N290        N  0.31417814  0.14104491  0.44691194     0.61500
H291        H  0.24511576  0.10448374  0.45466574     0.08900
O292        O  0.08056515  0.07838212  0.43130676    -0.39900
O293        O  0.11426673  0.11868994  0.45280412    -0.39100
O294        O  0.20820771  0.02124348  0.46186724    -0.39100
O295        O  0.19639621  0.00559511  0.43228101    -0.36800
O296        O  0.32179219  0.17034799  0.45574772    -0.37700
O297        O  0.32162892  0.11879186  0.45456562    -0.33900
O298        O  0.18680806  0.09522347  0.38547688    -0.35300
O299        O  0.18126331  0.04236788  0.39195596    -0.39600
C300        C  0.40251484  0.32939487  0.43315837    -0.13300
C301        C  0.41182759  0.30241972  0.43674604     0.17100
C302        C  0.44054651  0.31027618  0.44943052     0.03400
C303        C  0.45837088  0.34432550  0.45886426    -0.11800
C304        C  0.44759172  0.37062245  0.45608391    -0.02800
C305        C  0.42008321  0.36329209  0.44264369     0.02700
C306        C  0.39091896  0.26601711  0.42737680     0.09500
N307        N  0.45030872  0.28315328  0.45372604     0.65900
H308        H  0.47928408  0.34937781  0.46917626     0.18800
N309        N  0.41005760  0.39018433  0.43826251     0.76300
H310        H  0.38137080  0.32404030  0.42293571     0.10300
C311        C  0.35292095  0.24461689  0.42971669     0.04000
C312        C  0.33424528  0.20927427  0.42191036    -0.04700
C313        C  0.35267412  0.19374450  0.41186264    -0.23100
C314        C  0.39011604  0.21793234  0.40723613     0.13200
C315        C  0.40890418  0.25295891  0.41559559    -0.12300
N316        N  0.33294314  0.25804496  0.44045953     0.64900
H317        H  0.30502359  0.19417111  0.42403994     0.12700
N318        N  0.40995748  0.20724424  0.39455471     0.61500
H319        H  0.43778422  0.27021560  0.41276467     0.08900
O320        O  0.37770563  0.38383418  0.44094587    -0.39900
O321        O  0.43232740  0.41846165  0.42979881    -0.39100
O322        O  0.48159951  0.28795291  0.44949704    -0.39100
O323        O  0.42931094  0.25647622  0.46356538    -0.36800
O324        O  0.41074697  0.21454685  0.37749367    -0.37700
O325        O  0.43492611  0.20195481  0.40087704    -0.33900
O326        O  0.31125387  0.26597432  0.43235008    -0.35300
O327        O  0.33384796  0.25811260  0.45810578    -0.39600
C328        C  0.43982212  0.09007619  0.43937135    -0.13300
C329        C  0.40183463  0.07553522  0.44084272     0.17100
C330        C  0.38147370  0.04377100  0.45123397     0.03400
C331        C  0.39947600  0.02795417  0.46036185    -0.11800
C332        C  0.43781266  0.04365137  0.45971884    -0.02800
C333        C  0.45794274  0.07488136  0.44882185     0.02700
C334        C  0.38443582  0.09471132  0.43187014     0.09500
N335        N  0.34279266  0.02830728  0.45344561     0.65900
H336        H  0.38339175  0.00405715  0.46861397     0.18800
N337        N  0.99674227  0.09139819  0.44699417     0.76300
H338        H  0.45570560  0.11385887  0.43100379     0.10300
C339        C  0.39771189  0.13211353  0.43547539     0.04000
C340        C  0.38145874  0.14991324  0.42682793    -0.04700
C341        C  0.35178130  0.13188921  0.41398292    -0.23100
C342        C  0.33770095  0.09340658  0.41108703     0.13200
C343        C  0.35462346  0.07581547  0.41963033    -0.12300
N344        N  0.42647476  0.15219376  0.44884892     0.64900
H345        H  0.39117193  0.17764358  0.43167167     0.12700
N346        N  0.30472127  0.07092909  0.40066363     0.61500
H347        H  0.34389187  0.04686030  0.41685927     0.08900
O348        O  0.01733088  0.11916446  0.45702426    -0.39900
O349        O  0.01007954  0.08213020  0.43342122    -0.39100
O350        O  0.32142373  0.99665656  0.44688381    -0.39100
O351        O  0.33039032  0.04406500  0.46407231    -0.36800
O352        O  0.30690831  0.06126117  0.38404680    -0.37700
O353        O  0.27570532  0.05167948  0.40960359    -0.33900
O354        O  0.45575713  0.17965532  0.44382490    -0.35300
O355        O  0.42086032  0.14533412  0.46601612    -0.39600
C356        C  0.32309177  0.37142494  0.54629830    -0.13300
C357        C  0.31661248  0.39092361  0.56069787     0.17100
C358        C  0.34510297  0.42606628  0.56614878     0.03400
C359        C  0.37862262  0.44136606  0.55672420    -0.11800
C360        C  0.38390482  0.42288550  0.54142919    -0.02800
C361        C  0.35603111  0.38726624  0.53645623     0.02700
C362        C  0.28001808  0.37430066  0.56975806     0.09500
N363        N  0.33976754  0.44742583  0.58047472     0.65900
H364        H  0.39977427  0.46880234  0.56062689     0.18800
N365        N  0.36096756  0.36665078  0.52159059     0.76300
H366        H  0.30222564  0.34382976  0.54247642     0.10300
C367        C  0.24750361  0.35827912  0.55908525     0.04000
C368        C  0.21379672  0.34341130  0.56808921    -0.04700
C369        C  0.21055770  0.34516153  0.58781935    -0.23100
C370        C  0.24378917  0.35879625  0.59860355     0.13200
C371        C  0.27757591  0.37331946  0.58931013    -0.12300
N372        N  0.24802962  0.35854992  0.53902137     0.64900
H373        H  0.18954273  0.33262728  0.55930794     0.12700
N374        N  0.24495767  0.35683981  0.61860964     0.61500
H375        H  0.30243750  0.38325024  0.59753896     0.08900
O376        O  0.34304559  0.36018793  0.50652077    -0.39900
O377        O  0.37953800  0.35104146  0.52440034    -0.39100
O378        O  0.36087961  0.45919135  0.59454089    -0.39100
O379        O  0.31617105  0.45735738  0.57826777    -0.36800
O380        O  0.23128559  0.32607962  0.62601861    -0.37700
O381        O  0.26857895  0.38425858  0.62790269    -0.33900
O382        O  0.22840480  0.32946368  0.52964932    -0.35300
O383        O  0.26508831  0.38837375  0.53069140    -0.39600
C384        C  0.07800332  0.15106594  0.56796804    -0.13300
C385        C  0.09454388  0.18306522  0.55762839     0.17100
C386        C  0.09526230  0.18013507  0.53791326     0.03400
C387        C  0.07831489  0.14550614  0.52901990    -0.11800
C388        C  0.06177927  0.11319612  0.53928122    -0.02800
C389        C  0.06202861  0.11640155  0.55907073     0.02700
C390        C  0.11146501  0.21922153  0.56769148     0.09500
N391        N  0.11434732  0.21190878  0.52676000     0.65900
H392        H  0.07915084  0.14403829  0.51387980     0.18800
N393        N  0.04675727  0.08492599  0.57042330     0.76300
H394        H  0.07770315  0.15303546  0.58311953     0.10300
C395        C  0.10103291  0.24555559  0.56412745     0.04000
C396        C  0.12039684  0.28048593  0.57264517    -0.04700
C397        C  0.14901729  0.29009165  0.58597130    -0.23100
C398        C  0.15955045  0.26290037  0.58884154     0.13200
C399        C  0.14048914  0.22828967  0.58002589    -0.12300
N400        N  0.07057680  0.23720841  0.55199752     0.64900
H401        H  0.11271330  0.29999709  0.56815669     0.12700
N402        N  0.19044441  0.26979791  0.60006777     0.61500
H403        H  0.14942040  0.20852882  0.58238864     0.08900
O404        O  0.01661887  0.07508336  0.57851411    -0.39900
O405        O  0.06615133  0.07099598  0.57491568    -0.39100
O406        O  0.14705459  0.23539425  0.53070760    -0.39100
O407        O  0.10028046  0.21425401  0.51166520    -0.36800
O408        O  0.22066365  0.27990395  0.59199801    -0.37700
O409        O  0.18478283  0.25332305  0.61526820    -0.33900
O410        O  0.04060522  0.20803007  0.55387830    -0.35300
O411        O  0.07228668  0.26057539  0.54073436    -0.39600
C412        C  0.14834132  0.40132138  0.57189702    -0.13300
C413        C  0.11148751  0.38638631  0.57645998     0.17100
C414        C  0.09551426  0.35660381  0.58825736     0.03400
C415        C  0.11619518  0.34121150  0.59466791    -0.11800
C416        C  0.15288416  0.35357867  0.58887342    -0.02800
C417        C  0.16955037  0.38614506  0.57798774     0.02700
C418        C  0.08963062  0.40008085  0.56696025     0.09500
N419        N  0.05780914  0.34074086  0.59322409     0.65900
H420        H  0.10256392  0.31752680  0.60334923     0.18800
N421        N  0.20757161  0.40553407  0.57315377     0.76300
H422        H  0.16078180  0.42504137  0.56316046     0.10300
C423        C  0.09187525  0.43361722  0.57228813     0.04000
C424        C  0.07558003  0.44851056  0.56097004    -0.04700
C425        C  0.05738899  0.43062942  0.54421695    -0.23100
C426        C  0.05469343  0.39665701  0.53918024     0.13200
C427        C  0.07065947  0.38172618  0.55056962    -0.12300
N428        N  0.11120949  0.45307908  0.58892295     0.64900
H429        H  0.07785652  0.47454029  0.56508600     0.12700
N430        N  0.03572099  0.37686326  0.52256491     0.61500
H431        H  0.06927961  0.35615499  0.54627046     0.08900
O432        O  0.23136953  0.42240643  0.58573763    -0.39900
O433        O  0.21630620  0.41389094  0.55632368    -0.39100
O434        O  0.03391185  0.31366659  0.58386863    -0.39100
O435        O  0.04892975  0.35086125  0.60821229    -0.36800
O436        O  0.05360516  0.37847113  0.50800742    -0.37700
O437        O  0.00224564  0.35323116  0.52337499    -0.33900
O438        O  0.13816489  0.48492975  0.58791568    -0.35300
O439        O  0.09919518  0.43991988  0.60475176    -0.39600
C440        C  0.47841150  0.02075704  0.98209505    -0.13300
C441        C  0.00007285  0.00757609  0.98987736     0.17100
C442        C  0.01780215  0.99446874  0.97775204     0.03400
C443        C  0.01220113  0.49342107  0.95759884    -0.11800
C444        C  0.99401803  0.01019307  0.95006233    -0.02800
C445        C  0.47502276  0.02250684  0.96262202     0.02700
C446        C  0.00144749  0.00470087  0.01062907     0.09500
N447        N  0.04171869  0.98233505  0.98485471     0.65900
H448        H  0.02569142  0.48258390  0.94860096     0.18800
N449        N  0.45074554  0.03520450  0.95655720     0.76300
H450        H  0.46278608  0.02878010  0.99127643     0.10300
C451        C  0.00783142  0.03365385  0.02307787     0.04000
C452        C  0.00858580  0.02936152  0.04239955    -0.04700
C453        C  0.00484933  0.99715506  0.05045745    -0.23100
C454        C  0.99305567  0.46663913  0.03717548     0.13200
C455        C  0.99296832  0.47084136  0.01774208    -0.12300
N456        N  0.01414190  0.06802890  0.01641806     0.64900
H457        H  0.01231290  0.05244734  0.05086695     0.12700
N458        N  0.97683013  0.43003950  0.04329809     0.61500
H459        H  0.98363738  0.44690634  0.00857277     0.08900
O460        O  0.45472737  0.06501897  0.96330182    -0.39900
O461        O  0.42019063  0.01283920  0.94935329    -0.39100
O462        O  0.03208156  0.44664685  0.97880346    -0.39100
O463        O  0.06939741  0.00396315  0.99456284    -0.36800
O464        O  0.44447994  0.41514362  0.04932406    -0.37700
O465        O  0.98965997  0.40998549  0.03753509    -0.33900
O466        O  0.99302467  0.08015976  0.02121042    -0.35300
O467        O  0.04301311  0.08809224  0.00757146    -0.39600
C468        C  0.13967041  0.34638583  0.68625225    -0.13300
C469        C  0.15749620  0.32926890  0.67764792     0.17100
C470        C  0.17236139  0.31276581  0.68880870     0.03400
C471        C  0.16944483  0.31410230  0.70830117    -0.11800
C472        C  0.15405352  0.33372074  0.71750159    -0.02800
C473        C  0.13714913  0.34829354  0.70577267     0.02700
C474        C  0.15955761  0.32845917  0.65694005     0.09500
N475        N  0.19110107  0.29505125  0.68062265     0.65900
H476        H  0.17921760  0.29892330  0.71599863     0.18800
N477        N  0.11447349  0.36221084  0.71317016     0.76300
H478        H  0.12678750  0.35777335  0.67765562     0.10300
C479        C  0.14315664  0.29570662  0.64618149     0.04000
C480        C  0.14686404  0.29683485  0.62664758    -0.04700
C481        C  0.16749918  0.33000603  0.61712715    -0.23100
C482        C  0.18140651  0.36297457  0.62841507     0.13200
C483        C  0.17800858  0.36154050  0.64789798    -0.12300
N484        N  0.12142957  0.26112956  0.65475793     0.64900
H485        H  0.13179724  0.27110120  0.61913124     0.12700
N486        N  0.19716885  0.39846192  0.62065364     0.61500
H487        H  0.18952606  0.38688704  0.65610679     0.08900
O488        O  0.08024714  0.34336849  0.71080791    -0.39900
O489        O  0.12827154  0.39589301  0.71697362    -0.39100
O490        O  0.21638659  0.31154234  0.66898848    -0.39100
O491        O  0.18542818  0.26476378  0.68659856    -0.36800
O492        O  0.17627505  0.41146069  0.61769842    -0.37700
O493        O  0.23054010  0.42063068  0.62392978    -0.33900
O494        O  0.09654142  0.25683568  0.66612437    -0.35300
O495        O  0.12439277  0.23381194  0.64948786    -0.39600
C496        C  0.40573190  0.35830050  0.87940830    -0.13300
C497        C  0.42877087  0.36210906  0.89437233     0.17100
C498        C  0.43494350  0.33299300  0.89849230     0.03400
C499        C  0.41852472  0.30082117  0.88727926    -0.11800
C500        C  0.39493089  0.29681658  0.87243228    -0.02800
C501        C  0.38886070  0.32609621  0.86845220     0.02700
C502        C  0.44681823  0.39741450  0.90495381     0.09500
N503        N  0.45604073  0.33499756  0.91457584     0.65900
H504        H  0.42282886  0.27828484  0.89071092     0.18800
N505        N  0.36660078  0.32402641  0.85290988     0.76300
H506        H  0.40129042  0.38078999  0.87603033     0.10300
C507        C  0.48402510  0.42252299  0.90268211     0.04000
C508        C  0.49898659  0.45743420  0.91108536    -0.04700
C509        C  0.47710144  0.46961257  0.92087153    -0.23100
C510        C  0.44075110  0.44168989  0.92524025     0.13200
C511        C  0.42592101  0.40680189  0.91671396    -0.12300
N512        N  0.00655938  0.41379801  0.89089368     0.64900
H513        H  0.02802559  0.47500007  0.90919124     0.12700
N514        N  0.41792467  0.44776295  0.93808847     0.61500
H515        H  0.39759892  0.38676476  0.91926711     0.08900
O516        O  0.37871294  0.32640885  0.83649032    -0.39900
O517        O  0.33816815  0.32649381  0.85571724    -0.39100
O518        O  0.44485174  0.33729786  0.93073436    -0.39100
O519        O  0.48275700  0.32926984  0.91283490    -0.36800
O520        O  0.38767122  0.44344802  0.93224708    -0.37700
O521        O  0.42125573  0.44400942  0.95530044    -0.33900
O522        O  0.00242957  0.41213675  0.87334864    -0.35300
O523        O  0.53388583  0.41320300  0.89786302    -0.39600
C524        C  0.07532973  0.05405939  0.89291623    -0.13300
C525        C  0.10613996  0.07002930  0.90462221     0.17100
C526        C  0.10120338  0.06912086  0.92414775     0.03400
C527        C  0.06562993  0.05099326  0.93150223    -0.11800
C528        C  0.03397630  0.03272721  0.91988456    -0.02800
C529        C  0.03985283  0.03624789  0.90009731     0.02700
C530        C  0.14289440  0.08834695  0.89580220     0.09500
N531        N  0.13186982  0.08753716  0.93672136     0.65900
H532        H  0.06342443  0.05308280  0.94646683     0.18800
N533        N  0.01023085  0.02269922  0.88688360     0.76300
H534        H  0.07883172  0.05545455  0.87785616     0.10300
C535        C  0.16920657  0.07716697  0.89864876     0.04000
C536        C  0.20239567  0.09400861  0.88880310    -0.04700
C537        C  0.20957016  0.12121224  0.87583799    -0.23100
C538        C  0.18323860  0.13238879  0.87315864     0.13200
C539        C  0.15067802  0.11636108  0.88334686    -0.12300
N540        N  0.16208125  0.04782058  0.91076340     0.64900
H541        H  0.22227376  0.08505010  0.89089736     0.12700
N542        N  0.18782614  0.15802844  0.85919567     0.61500
H543        H  0.13050206  0.12482833  0.88093979     0.08900
O544        O  0.00301134  0.54908450  0.88003876    -0.39900
O545        O  0.50118959  0.49660878  0.87736808    -0.39100
O546        O  0.15580641  0.12031670  0.93413182    -0.39100
O547        O  0.13325141  0.07226917  0.95141263    -0.36800
O548        O  0.18980370  0.15040508  0.84216044    -0.37700
O549        O  0.18353375  0.18497932  0.86347039    -0.33900
O550        O  0.11871374  0.50779876  0.88141482    -0.35300
O551        O  0.15182475  0.51710125  0.90652230    -0.39600
C552        C  0.46888002  0.08410206  0.91366339    -0.13300
C553        C  0.43740533  0.06381664  0.90272250     0.17100
C554        C  0.42414464  0.02618150  0.89977231     0.03400
C555        C  0.44178729  0.00938471  0.90830925    -0.11800
C556        C  0.47309865  0.02902232  0.91998489    -0.02800
C557        C  0.48715734  0.06770535  0.92197262     0.02700
C558        C  0.42034052  0.08288585  0.89333614     0.09500
N559        N  0.39452297  0.00510392  0.88693637     0.65900
H560        H  0.43040991  0.48210941  0.90445292     0.18800
N561        N  0.02190983  0.09158312  0.93070680     0.76300
H562        H  0.48006132  0.11337116  0.91537467     0.10300
C563        C  0.38341704  0.07341906  0.89629018     0.04000
C564        C  0.36756823  0.08959711  0.88557503    -0.04700
C565        C  0.38808675  0.11597333  0.87232400    -0.23100
C566        C  0.42522431  0.12584071  0.86975963     0.13200
C567        C  0.44088083  0.10927046  0.88019202    -0.12300
N568        N  0.36200573  0.04812777  0.91036196     0.64900
H569        H  0.33921848  0.08212186  0.88795019     0.12700
N570        N  0.44662763  0.15031874  0.85553537     0.61500
H571        H  0.46903253  0.11621877  0.87757287     0.08900
O572        O  0.02420810  0.09669031  0.94823019    -0.39900
O573        O  0.04803427  0.11358511  0.92073120    -0.39100
O574        O  0.39388922  0.51182589  0.87136087    -0.39100
O575        O  0.36886337  0.97424550  0.89148098    -0.36800
O576        O  0.46751321  0.18361517  0.85973577    -0.37700
O577        O  0.45075837  0.13738378  0.84015079    -0.33900
O578        O  0.37458292  0.05203250  0.92677564    -0.35300
O579        O  0.32909400  0.02444082  0.90701540    -0.39600
C580        C  0.22860156  0.26753207  0.79468628    -0.13300
C581        C  0.22570990  0.26408281  0.77518628     0.17100
C582        C  0.24269688  0.24703019  0.76538735     0.03400
C583        C  0.26105451  0.23241507  0.77528417    -0.11800
C584        C  0.26321528  0.23487984  0.79498417    -0.02800
C585        C  0.24724028  0.25350780  0.80461864     0.02700
C586        C  0.20635166  0.28025013  0.76541765     0.09500
N587        N  0.24093718  0.24382974  0.74541356     0.65900
H588        H  0.27333316  0.21879383  0.76747661     0.18800
N589        N  0.25008386  0.25917302  0.82447428     0.76300
H590        H  0.21663327  0.28171661  0.80228443     0.10300
C591        C  0.16921666  0.26839355  0.76878671     0.04000
C592        C  0.15236942  0.28628506  0.76071358    -0.04700
C593        C  0.17148446  0.31611657  0.74876135    -0.23100
C594        C  0.20999197  0.32942147  0.74672311     0.13200
C595        C  0.22641503  0.31085919  0.75458486    -0.12300
N596        N  0.14830077  0.23843286  0.78070531     0.64900
H597        H  0.12429697  0.27692480  0.76455394     0.12700
N598        N  0.23339726  0.36246634  0.73730001     0.61500
H599        H  0.25556731  0.32139839  0.75282631     0.08900
O600        O  0.22355080  0.23845104  0.83458933    -0.39900
O601        O  0.27505615  0.28898765  0.83134189    -0.39100
O602        O  0.26910045  0.26305574  0.73589164    -0.39100
O603        O  0.21208077  0.21981813  0.73734326    -0.36800
O604        O  0.24448040  0.36050301  0.72107262    -0.37700
O605        O  0.25189586  0.39127688  0.74707233    -0.33900
O606        O  0.13572511  0.24359990  0.79588112    -0.35300
O607        O  0.13942927  0.20634166  0.77523828    -0.39600
C608        C  0.00275523  0.24681887  0.78294545    -0.13300
C609        C  0.00098990  0.25917288  0.76527351     0.17100
C610        C  0.46732944  0.25376278  0.75841050     0.03400
C611        C  0.43609670  0.23727050  0.76970890    -0.11800
C612        C  0.43814300  0.22637611  0.78793197    -0.02800
C613        C  0.47194332  0.23069830  0.79431477     0.02700
C614        C  0.03562317  0.27981553  0.75516108     0.09500
N615        N  0.46466005  0.26529693  0.74015789     0.65900
H616        H  0.41046899  0.23392518  0.76439377     0.18800
N617        N  0.47540779  0.21787232  0.81204977     0.76300
H618        H  0.02862374  0.25055328  0.78816976     0.10300
C619        C  0.05779038  0.31729124  0.75887552     0.04000
C620        C  0.09400369  0.33516318  0.75278892    -0.04700
C621        C  0.10994536  0.31600801  0.74371978    -0.23100
C622        C  0.08538318  0.27896406  0.73788871     0.13200
C623        C  0.04905055  0.26123745  0.74409788    -0.12300
N624        N  0.04446646  0.33712593  0.76988399     0.64900
H625        H  0.10947908  0.36418745  0.75573964     0.12700
N626        N  0.09661093  0.25862807  0.72581268     0.61500
H627        H  0.03155119  0.23243935  0.74074944     0.08900
O628        O  0.98517629  0.23913790  0.82613398    -0.39900
O629        O  0.47783773  0.18920782  0.81254629    -0.39100
O630        O  0.45221299  0.24225631  0.72671013    -0.39100
O631        O  0.97015795  0.29735948  0.73801959    -0.36800
O632        O  0.08963898  0.25673027  0.70853750    -0.37700
O633        O  0.10195393  0.23427880  0.73261403    -0.33900
O634        O  0.04655370  0.33772781  0.78751091    -0.35300
O635        O  0.03431052  0.35714635  0.76201169    -0.39600
C636        C  0.26104728  0.01298976  0.76642750    -0.13300
C637        C  0.22576751  0.48574774  0.77250510     0.17100
C638        C  0.20908143  0.99222750  0.78733409     0.03400
C639        C  0.22714762  0.02586572  0.79716823    -0.11800
C640        C  0.26138227  0.05370358  0.79146170    -0.02800
C641        C  0.27805593  0.04735501  0.77567660     0.02700
C642        C  0.20811873  0.44830011  0.76361536     0.09500
N643        N  0.16896205  0.47177296  0.78972935     0.65900
H644        H  0.21385332  0.03068057  0.80911298     0.18800
N645        N  0.31314754  0.07484261  0.76950574     0.76300
H646        H  0.27539563  0.00794806  0.75509086     0.10300
C647        C  0.20906454  0.44202151  0.74419605     0.04000
C648        C  0.19203434  0.40613378  0.73668767    -0.04700
C649        C  0.17250179  0.37534173  0.74799771    -0.23100
C650        C  0.17440237  0.38232331  0.76782329     0.13200
C651        C  0.19170810  0.41813721  0.77515124    -0.12300
N652        N  0.22685468  0.47179785  0.73179944     0.64900
H653        H  0.19458822  0.40291985  0.72180850     0.12700
N654        N  0.16011270  0.35358721  0.78100232     0.61500
H655        H  0.19273093  0.42236419  0.79021909     0.08900
O656        O  0.31533108  0.09868391  0.75844952    -0.39900
O657        O  0.34118214  0.07209549  0.77281526    -0.39100
O658        O  0.15803714  0.46345261  0.80630659    -0.39100
O659        O  0.14583520  0.46180631  0.77655916    -0.36800
O660        O  0.18232369  0.34679498  0.78943946    -0.37700
O661        O  0.12955616  0.34441124  0.78847202    -0.33900
O662        O  0.25339702  0.47501359  0.72201463    -0.35300
O663        O  0.20818963  0.99251823  0.73116081    -0.39600
O664        O  0.39182928  0.74467175  0.85728413    -0.77400
C665        C  0.36914460  0.63224942  0.86167753     0.83700
O666        O  0.37539734  0.69882431  0.79326689    -0.78500
O667        O  0.27895103  0.58654739  0.82138632    -0.80000
O668        O  0.25962116  0.67168535  0.86116225    -0.79800
O669        O  0.34123878  0.74939005  0.85817304    -0.78400
Zn670      Zn  0.37802691  0.69899439  0.84117245     1.55700
O671        O  0.25671789  0.61753858  0.85999738    -0.79800
Cd672      Cd  0.30332305  0.70302968  0.84370116     1.59700
Cd673      Cd  0.32340268  0.67290988  0.80500576     1.59600
O674        O  0.28293052  0.71984226  0.82237616    -0.79800
O675        O  0.32691767  0.67527975  0.83320403    -1.90300
Cd676      Cd  0.30003918  0.62488300  0.84313409     1.59900
O677        O  0.29506973  0.69907226  0.79585599    -0.79800
O678        O  0.33476539  0.61385737  0.85860069    -0.78400
C679        C  0.40704846  0.71318903  0.80090197     0.84100
C680        C  0.37485473  0.76162983  0.86231147     0.83800
O681        O  0.38854963  0.66446995  0.85566843    -0.77400
C682        C  0.24438746  0.63833700  0.86577584     0.84600
O683        O  0.41086799  0.71442230  0.81863101    -0.77500
C684        C  0.28141043  0.71646711  0.80459649     0.84700
C685        C  0.28073921  0.58817954  0.80359843     0.85000
O686        O  0.29706413  0.61851436  0.79523248    -0.79900
C687        C  0.15363475  0.83515274  0.73829563    -0.01400
C688        C  0.99367185  0.51099978  0.92761735    -0.01400
O689        O  0.49467152  0.91828230  0.47466779    -0.77400
C690        C  0.08417746  0.52550299  0.46983662     0.83700
O691        O  0.03186796  0.96721317  0.53870586    -0.78500
O692        O  0.04380881  0.57596851  0.51060942    -0.80000
O693        O  0.43569189  0.49330996  0.47578150    -0.79800
O694        O  0.44251424  0.91956326  0.47289046    -0.78400
Zn695      Zn  0.02796024  0.96267753  0.49084412     1.55700
O696        O  0.48897574  0.54451657  0.47330290    -0.79800
Cd697      Cd  0.45127054  0.96188702  0.49097431     1.59700
Cd698      Cd  0.00406440  0.99247077  0.52812084     1.59600
O699        O  0.41648440  0.93887597  0.51311132    -0.79800
O700        O  0.00297446  0.98850774  0.49996268    -1.90300
Cd701      Cd  0.02495368  0.53646589  0.48941366     1.59900
O702        O  0.45111534  0.96406520  0.53869922    -0.79800
O703        O  0.06887763  0.54475652  0.47305640    -0.78400
C704        C  0.04517551  0.94900036  0.53053388     0.84100
C705        C  0.46210571  0.90521755  0.46839612     0.83800
O706        O  0.07164153  0.49388045  0.47667065    -0.77400
C707        C  0.45483764  0.52550323  0.46970114     0.84600
O708        O  0.04503071  0.94570200  0.51273784    -0.77500
C709        C  0.42026049  0.94301020  0.53082999     0.84700
C710        C  0.04202021  0.57587254  0.52843591     0.85000
O711        O  0.02624765  0.54597726  0.53719969    -0.79900
C712        C  0.33204829  0.65251268  0.40618270    -0.01400
C713        C  0.17262371  0.82903195  0.59408571    -0.01400
O714        O  0.24725001  0.89542538  0.14235581    -0.77400
C715        C  0.13630620  0.87504672  0.13575652     0.83700
O716        O  0.20192584  0.88989219  0.20541946    -0.78500
O717        O  0.09153908  0.79263384  0.17834223    -0.80000
O718        O  0.17159838  0.76112213  0.14443842    -0.79800
O719        O  0.24750512  0.84267311  0.13990411    -0.78400
Zn720      Zn  0.20305287  0.88539200  0.15777709     1.55700
O721        O  0.11881607  0.76118325  0.14194952    -0.79800
Cd722      Cd  0.20625305  0.81033194  0.15806720     1.59700
Cd723      Cd  0.17838996  0.83641265  0.19501075     1.59600
O724        O  0.22998780  0.79930040  0.18051739    -0.79800
O725        O  0.17921252  0.83582381  0.16685130    -1.90300
Cd726      Cd  0.12820140  0.80859047  0.15662237     1.59900
O727        O  0.20747099  0.81278592  0.20599190    -0.79800
O728        O  0.11677282  0.84167342  0.14006569    -0.78400
C729        C  0.21678846  0.92040453  0.19725684     0.84100
C730        C  0.26083890  0.87616523  0.13591003     0.83800
O731        O  0.16930408  0.89439948  0.14137683    -0.77400
C732        C  0.13831600  0.74592688  0.13899277     0.84600
O733        O  0.21897139  0.92178993  0.17945617    -0.77500
C734        C  0.22702350  0.80064613  0.19827047     0.84700
C735        C  0.09413192  0.79385272  0.19613394     0.85000
O736        O  0.12501165  0.80863136  0.20457859    -0.79900
C737        C  0.00989199  0.49502706  0.07185443    -0.01400
C738        C  0.34848821  0.67368047  0.26197443    -0.01400
C739        C  0.41006289  0.97305084  0.08547722    -0.13300
C740        C  0.39792233  0.94251007  0.09652223     0.17100
C741        C  0.42222828  0.93017733  0.10090199     0.03400
C742        C  0.45798961  0.94859225  0.09434137    -0.11800
C743        C  0.47059575  0.97724353  0.08135034    -0.02800
C744        C  0.44582411  0.99105765  0.07832430     0.02700
C745        C  0.36166297  0.92651521  0.10550852     0.09500
N746        N  0.41167152  0.90030062  0.11307818     0.65900
H747        H  0.47657110  0.94126934  0.10130066     0.18800
N748        N  0.45851606  0.52779436  0.06943830     0.76300
H749        H  0.39185334  0.98429603  0.08309407     0.10300
C750        C  0.35418872  0.94646773  0.11932608     0.04000
C751        C  0.32026640  0.93015830  0.12828896    -0.04700
C752        C  0.29393678  0.89369633  0.12417566    -0.23100
C753        C  0.30115472  0.87403369  0.11001241     0.13200
C754        C  0.33494171  0.89054520  0.10085465    -0.12300
N755        N  0.38175426  0.98230313  0.12533130     0.64900
H756        H  0.31538060  0.94541570  0.13933814     0.12700
N757        N  0.27409805  0.83773556  0.10444322     0.61500
H758        H  0.34044377  0.87522834  0.09008219     0.08900
O759        O  0.47854115  0.55615584  0.07922138    -0.39900
O760        O  0.44108716  0.53036362  0.05576246    -0.39100
O761        O  0.40418165  0.86930813  0.10634398    -0.39100
O762        O  0.41381070  0.90572708  0.13059357    -0.36800
O763        O  0.24637092  0.83259656  0.09518629    -0.37700
O764        O  0.27996913  0.81144135  0.10678818    -0.33900
O765        O  0.36853359  0.51134912  0.11838578    -0.35300
O766        O  0.40621205  0.49462407  0.12940451    -0.39600
C767        C  0.04821761  0.57233041  0.11123108    -0.13300
C768        C  0.07002895  0.60353460  0.10114388     0.17100
C769        C  0.07687957  0.59961705  0.08230491     0.03400
C770        C  0.05977124  0.56503457  0.07350869    -0.11800
C771        C  0.03367967  0.53311497  0.08266692    -0.02800
C772        C  0.03147717  0.53739404  0.10254405     0.02700
C773        C  0.08735210  0.63986788  0.11072882     0.09500
N774        N  0.10140439  0.63066542  0.07187148     0.65900
H775        H  0.06765769  0.56404688  0.05924368     0.18800
N776        N  0.01468547  0.50688326  0.11452074     0.76300
H777        H  0.04511461  0.57503703  0.12616883     0.10300
C778        C  0.07012496  0.66129555  0.11116058     0.04000
C779        C  0.08730171  0.69579297  0.12017912    -0.04700
C780        C  0.12160589  0.70947045  0.12909219    -0.23100
C781        C  0.13882123  0.68765829  0.12850573     0.13200
C782        C  0.12168158  0.65335886  0.11926853    -0.11100
N783        N  0.03500774  0.64815876  0.10259451     0.64900
H784        H  0.07344278  0.71176009  0.12032232     0.12700
N785        N  0.17316889  0.69928486  0.13763466     0.61500
H786        H  0.13506732  0.63692757  0.11894271     0.08900
O787        O  0.03003914  0.48794573  0.11687797    -0.39900
O788        O  0.99102129  0.50486756  0.12616896    -0.39100
O789        O  0.13436539  0.63840789  0.07003510    -0.39100
O790        O  0.08902800  0.64707592  0.06237134    -0.36800
O791        O  0.17391023  0.69325416  0.15478190    -0.37700
O792        O  0.20183980  0.71009632  0.12802638    -0.33900
O793        O  0.00660399  0.62473695  0.11069018    -0.35300
O794        O  0.03199950  0.66275018  0.08802005    -0.39600
C795        C  0.07529872  0.91200071  0.11987788    -0.13300
C796        C  0.08680460  0.92131200  0.10134723     0.17100
C797        C  0.11527981  0.91587273  0.09423074     0.03400
C798        C  0.13207243  0.90183842  0.10584326    -0.11800
C799        C  0.11999068  0.89196134  0.12422861    -0.02800
C800        C  0.09156112  0.89735664  0.13129012     0.02700
C801        C  0.06877411  0.93715455  0.08998087     0.09500
N802        N  0.12593340  0.92252151  0.07502472     0.65900
H803        H  0.15359029  0.89723156  0.10027364     0.18800
N804        N  0.07989526  0.88929780  0.15026019     0.76300
H805        H  0.05383034  0.91655106  0.12557061     0.10300
C806        C  0.03118369  0.91737092  0.08628459     0.04000
C807        C  0.01353038  0.93458418  0.07835989    -0.04700
C808        C  0.03174170  0.97262155  0.07501102    -0.23100
C809        C  0.07086117  0.98942872  0.07470776     0.13200
C810        C  0.08873433  0.97257409  0.08327867    -0.12300
N811        N  0.01022339  0.87963444  0.09080886     0.64900
H812        H  0.48521627  0.91772035  0.07593773     0.12700
N813        N  0.09243867  0.52101901  0.06446134     0.61500
H814        H  0.11813448  0.98672883  0.08431797     0.08900
O815        O  0.04849522  0.86316153  0.15375372    -0.39900
O816        O  0.09919098  0.91083228  0.16335681    -0.39100
O817        O  0.15936984  0.94055741  0.07083366    -0.39100
O818        O  0.10228974  0.90699486  0.06218302    -0.36800
O819        O  0.08654034  0.52039524  0.04711399    -0.37700
O820        O  0.12259138  0.54555458  0.07121947    -0.33900
O821        O  0.48470242  0.86954510  0.10258964    -0.35300
O822        O  0.01568930  0.85621386  0.08213480    -0.39600
C823        C  0.31381783  0.72017989  0.22715681    -0.13300
C824        C  0.30285909  0.74012388  0.23891315     0.17100
C825        C  0.30626783  0.73850921  0.25844002     0.03400
C826        C  0.31953137  0.71643571  0.26568816    -0.11800
C827        C  0.33130509  0.69648007  0.25393780    -0.02800
C828        C  0.32925930  0.70013303  0.23416450     0.02700
C829        C  0.28636826  0.76072881  0.23024895     0.09500
N830        N  0.29827551  0.76061783  0.27112138     0.65900
H831        H  0.32293153  0.71751590  0.28067509     0.18800
N832        N  0.34399834  0.68499071  0.22074060     0.76300
H833        H  0.31087569  0.72045243  0.21212084     0.10300
C834        C  0.30173621  0.78153883  0.21408509     0.04000
C835        C  0.28174096  0.79396561  0.20394366    -0.04700
C836        C  0.24740549  0.78799451  0.21002314    -0.23100
C837        C  0.23329475  0.76970662  0.22691560     0.13200
C838        C  0.25246217  0.75575074  0.23665602    -0.12300
N839        N  0.33769323  0.79044741  0.20784142     0.64900
H840        H  0.29350755  0.80908843  0.19135284     0.12700
N841        N  0.19842156  0.76289058  0.23369764     0.61500
H842        H  0.23985294  0.73943495  0.24879520     0.08900
O843        O  0.32255321  0.65563923  0.21204727    -0.39900
O844        O  0.37419204  0.70629443  0.21326456    -0.39100
O845        O  0.27892858  0.74673525  0.28538050    -0.39100
O846        O  0.31366959  0.79472248  0.26917277    -0.36800
O847        O  0.16953816  0.73654768  0.22685060    -0.37700
O848        O  0.19663239  0.77994484  0.24811818    -0.33900
O849        O  0.34334027  0.78687480  0.19073137    -0.35300
O850        O  0.36438538  0.80441202  0.21917575    -0.39600
C851        C  0.24644308  0.99031651  0.23807303    -0.13300
C852        C  0.26842929  0.52506241  0.22837756     0.17100
C853        C  0.27605850  0.52340028  0.20928061     0.03400
C854        C  0.25021852  0.98860398  0.19906641    -0.11800
C855        C  0.23226019  0.95535717  0.20847546    -0.02800
C856        C  0.23021617  0.95659240  0.22827981     0.02700
C857        C  0.28519758  0.56041597  0.23894398     0.09500
N858        N  0.30177973  0.55552719  0.19988720     0.65900
H859        H  0.25252043  0.98867951  0.18395549     0.18800
N860        N  0.21175478  0.92402829  0.23873056     0.76300
H861        H  0.24479060  0.99092410  0.25321277     0.10300
C862        C  0.27178663  0.58481522  0.23734133     0.04000
C863        C  0.29046530  0.61950437  0.24602927    -0.04700
C864        C  0.32445160  0.63213202  0.25550580    -0.23100
C865        C  0.33399204  0.60461936  0.25946712     0.13200
C866        C  0.31515707  0.56991658  0.25065052    -0.12300
N867        N  0.23919364  0.57478106  0.22681768     0.64900
H868        H  0.27805016  0.63653322  0.24474729     0.12700
N869        N  0.36294508  0.61100713  0.27206987     0.61500
H870        H  0.32426069  0.55024763  0.25285696     0.08900
O871        O  0.17882585  0.91222140  0.24336793    -0.39900
O872        O  0.22988209  0.91081427  0.24595349    -0.39100
O873        O  0.33553266  0.56959744  0.20348146    -0.39100
O874        O  0.29144021  0.56673115  0.18625966    -0.36800
O875        O  0.35579090  0.60668903  0.28929371    -0.37700
O876        O  0.38929420  0.60736200  0.26592113    -0.33900
O877        O  0.20854916  0.55930559  0.23483600    -0.35300
O878        O  0.24147290  0.58662575  0.21055736    -0.39600
C879        C  0.52354062  0.74611716  0.23400837    -0.13300
C880        C  0.49300843  0.74628437  0.22634132     0.17100
C881        C  0.99603396  0.76293418  0.20916057     0.03400
C882        C  0.02924312  0.77833664  0.19959969    -0.11800
C883        C  0.05994923  0.77795370  0.20707341    -0.02800
C884        C  0.05701633  0.76198860  0.22458765     0.02700
C885        C  0.45762617  0.72761077  0.23600836     0.09500
N886        N  0.96545356  0.76404137  0.20120218     0.65900
H887        H  0.03105525  0.79087417  0.18630074     0.18800
N888        N  0.08718884  0.76015694  0.23255324     0.76300
H889        H  0.52115152  0.73306811  0.24720779     0.10300
C890        C  0.43430423  0.69006698  0.23328743     0.04000
C891        C  0.40009493  0.67309080  0.24186365    -0.04700
C892        C  0.38805914  0.69260781  0.25376597    -0.23100
C893        C  0.41208838  0.73141254  0.25578093     0.13200
C894        C  0.44636369  0.74792548  0.24711336    -0.12300
N895        N  0.44411253  0.66917504  0.22081216     0.64900
H896        H  0.38254828  0.64487543  0.23785532     0.12700
N897        N  0.40114267  0.75530094  0.26490146     0.61500
H898        H  0.46404022  0.77724147  0.24865868     0.08900
O899        O  0.09191787  0.73342560  0.22841704    -0.39900
O900        O  0.10561399  0.78209377  0.24570919    -0.39100
O901        O  0.96050773  0.79074420  0.20504426    -0.39100
O902        O  0.44710673  0.74175475  0.18820163    -0.36800
O903        O  0.39995389  0.75709094  0.28251282    -0.37700
O904        O  0.39990564  0.77971260  0.25556974    -0.33900
O905        O  0.45588303  0.64928151  0.22729643    -0.35300
O906        O  0.43647103  0.66686074  0.20360396    -0.39600
C907        C  0.31830888  0.67396645  0.35484169    -0.13300
C908        C  0.33522607  0.65809274  0.34423728     0.17100
C909        C  0.35118901  0.64034305  0.35361623     0.03400
C910        C  0.35031771  0.63912987  0.37320914    -0.11800
C911        C  0.33197276  0.65357326  0.38422747    -0.02800
C912        C  0.31657300  0.67218861  0.37442806     0.02700
C913        C  0.33902232  0.66323419  0.32359543     0.09500
N914        N  0.36825915  0.62306375  0.34339003     0.65900
H915        H  0.36498688  0.62715450  0.37958167     0.18800
N916        N  0.30101221  0.69160022  0.38403250     0.76300
H917        H  0.30728965  0.68906273  0.34788677     0.10300
C918        C  0.30859146  0.65283067  0.31184014     0.04000
C919        C  0.31335277  0.65734470  0.29249940    -0.04700
C920        C  0.34826588  0.67310910  0.28395772    -0.23100
C921        C  0.37927268  0.68410350  0.29626399     0.13200
C922        C  0.37391336  0.67950262  0.31566104    -0.12300
N923        N  0.27238326  0.63678048  0.31926330     0.64900
H924        H  0.28905445  0.64805034  0.28388268     0.12700
N925        N  0.41627380  0.69829784  0.28995608     0.61500
H926        H  0.39756772  0.68809724  0.32469709     0.08900
O927        O  0.26664568  0.67692779  0.38519945    -0.39900
O928        O  0.31981045  0.72595817  0.38552243    -0.39100
O929        O  0.40073087  0.63105390  0.34721986    -0.39100
O930        O  0.34967563  0.59712379  0.33191200    -0.36800
O931        O  0.42587983  0.67682938  0.28252093    -0.37700
O932        O  0.44091424  0.72825044  0.29692960    -0.33900
O933        O  0.25411270  0.65314041  0.31803969    -0.35300
O934        O  0.25725817  0.60467605  0.32519330    -0.39600
C935        C  0.15976460  0.58361327  0.43571560    -0.13300
C936        C  0.18347134  0.56933571  0.43753627     0.17100
C937        C  0.17360891  0.53950826  0.44922563     0.03400
C938        C  0.14103586  0.52545137  0.45942869    -0.11800
C939        C  0.11764659  0.54037809  0.45812308    -0.02800
C940        C  0.12709981  0.56949879  0.44582963     0.02700
C941        C  0.22041556  0.58888336  0.42916808     0.09500
N942        N  0.19650118  0.52330368  0.45084728     0.65900
H943        H  0.13422388  0.50289460  0.46856318     0.18800
N944        N  0.10399741  0.58519180  0.44343829     0.76300
H945        H  0.16730027  0.60675484  0.42688775     0.10300
C946        C  0.22560325  0.59292619  0.40978770     0.04000
C947        C  0.26105836  0.61288314  0.40260621    -0.04700
C948        C  0.29242404  0.63065032  0.41441034    -0.23100
C949        C  0.28635928  0.62516429  0.43413670     0.13200
C950        C  0.25085769  0.60492883  0.44107212    -0.12300
N951        N  0.19513293  0.57570484  0.39714207     0.64900
H952        H  0.26344296  0.61294224  0.38756910     0.12700
N953        N  0.31572531  0.63852575  0.44750902     0.61500
H954        H  0.24703695  0.60176401  0.45606577     0.08900
O955        O  0.08341189  0.57628372  0.42921359    -0.39900
O956        O  0.10897242  0.61235487  0.45355303    -0.39100
O957        O  0.20626606  0.51887879  0.46678246    -0.39100
O958        O  0.20473566  0.51092286  0.43643338    -0.36800
O959        O  0.32390514  0.66748035  0.45683427    -0.37700
O960        O  0.32369452  0.61596598  0.45434797    -0.33900
O961        O  0.18674902  0.59490003  0.38724173    -0.35300
O962        O  0.17894374  0.54150517  0.39449518    -0.39600
C963        C  0.39725032  0.82772444  0.43566126    -0.13300
C964        C  0.40957728  0.80253995  0.43776849     0.17100
C965        C  0.44141383  0.81267639  0.44851572     0.03400
C966        C  0.45951420  0.84720705  0.45745717    -0.11800
C967        C  0.44593983  0.87168705  0.45625754    -0.02800
C968        C  0.41498537  0.86199797  0.44476612     0.02700
C969        C  0.38892486  0.76582566  0.42863552     0.09500
N970        N  0.45441550  0.78744440  0.45137054     0.65900
H971        H  0.48305317  0.85398643  0.46626859     0.18800
N972        N  0.40139279  0.88674515  0.44201791     0.76300
H973        H  0.37358025  0.82066797  0.42689579     0.10300
C974        C  0.35144173  0.74302081  0.43203287     0.04000
C975        C  0.33309266  0.70796183  0.42383568    -0.04700
C976        C  0.35155995  0.69366987  0.41281014    -0.23100
C977        C  0.38826737  0.71899152  0.40751176     0.13200
C978        C  0.40655571  0.75405281  0.41583967    -0.12300
N979        N  0.33179249  0.75456329  0.44434285     0.64900
H980        H  0.30417177  0.69198795  0.42661210     0.12700
N981        N  0.40778116  0.70968161  0.39391793     0.61500
H982        H  0.43484095  0.77233332  0.41222104     0.08900
O983        O  0.36982803  0.87884581  0.44764982    -0.39900
O984        O  0.41908854  0.91431062  0.43207661    -0.39100
O985        O  0.48697418  0.79611767  0.44731402    -0.39100
O986        O  0.43456492  0.75799662  0.45960258    -0.36800
O987        O  0.40779385  0.71844233  0.37717104    -0.37700
O988        O  0.43316299  0.70412774  0.39930288    -0.33900
O989        O  0.30446629  0.75623987  0.43832277    -0.35300
O990        O  0.33971054  0.75997536  0.46156852    -0.39600
C991        C  0.43958732  0.58707112  0.43720694    -0.13300
C992        C  0.40244554  0.57558662  0.44014186     0.17100
C993        C  0.38207712  0.54609824  0.45197000     0.03400
C994        C  0.39924476  0.52921107  0.46090228    -0.11800
C995        C  0.43683110  0.54161726  0.45854654    -0.02800
C996        C  0.45687916  0.57053017  0.44626188     0.02700
C997        C  0.38569974  0.59518130  0.43099588     0.09500
N998        N  0.34449434  0.53439426  0.45588647     0.65900
H999        H  0.38337545  0.50729846  0.47035625     0.18800
N1000       N  0.99461341  0.58290405  0.44243076     0.76300
H1001       H  0.45530616  0.60908373  0.42777679     0.10300
C1002       C  0.39991820  0.63281120  0.43413547     0.04000
C1003       C  0.38315256  0.65063696  0.42596595    -0.04700
C1004       C  0.35238678  0.63238756  0.41377217    -0.23100
C1005       C  0.33826393  0.59388963  0.41078500     0.13200
C1006       C  0.35516971  0.57619084  0.41923161    -0.12300
N1007       N  0.43019388  0.65309160  0.44663570     0.64900
H1008       H  0.39360264  0.67861044  0.43056629     0.12700
N1009       N  0.30525396  0.57149508  0.40036038     0.61500
H1010       H  0.34390870  0.54707131  0.41676630     0.08900
O1011       O  0.01885681  0.61384902  0.44856472    -0.39900
O1012       O  0.00326756  0.56505876  0.43100059    -0.39100
O1013       O  0.31988431  0.50330662  0.45013615    -0.39100
O1014       O  0.33639129  0.55281885  0.46721930    -0.36800
O1015       O  0.30741309  0.56314407  0.38348459    -0.37700
O1016       O  0.27651666  0.55116293  0.40924958    -0.33900
O1017       O  0.46069121  0.67655126  0.44026475    -0.35300
O1018       O  0.42507012  0.65141643  0.46408500    -0.39600
C1019       C  0.32862343  0.86915228  0.54791810    -0.13300
C1020       C  0.31939792  0.88893754  0.56090238     0.17100
C1021       C  0.34540224  0.92570305  0.56529786     0.03400
C1022       C  0.37931634  0.94225806  0.55625920    -0.11800
C1023       C  0.38737646  0.92312951  0.54239659    -0.02800
C1024       C  0.36209243  0.88602038  0.53852338     0.02700
C1025       C  0.28255372  0.87115260  0.56964419     0.09500
N1026       N  0.33677741  0.94730495  0.57792999     0.65900
H1027       H  0.39843865  0.97087262  0.55920973     0.18800
N1028       N  0.37037413  0.86502450  0.52529509     0.76300
H1029       H  0.30957820  0.84055534  0.54490294     0.10300
C1030       C  0.25039400  0.85323845  0.55877678     0.04000
C1031       C  0.21637350  0.83920476  0.56743521    -0.04700
C1032       C  0.21258295  0.84263199  0.58704158    -0.23100
C1033       C  0.24550380  0.85673321  0.59814514     0.13200
C1034       C  0.27961913  0.87157879  0.58915497    -0.12300
N1035       N  0.25162372  0.85074915  0.53878090     0.64900
H1036       H  0.19241022  0.82758054  0.55840811     0.12700
N1037       N  0.24599920  0.85471575  0.61817721     0.61500
H1038       H  0.30438683  0.88280400  0.59757439     0.08900
O1039       O  0.35402343  0.85556975  0.50967208    -0.39900
O1040       O  0.39040467  0.85203250  0.53014617    -0.39100
O1041       O  0.35541280  0.96085934  0.59271983    -0.39100
O1042       O  0.31349684  0.95639481  0.57324659    -0.36800
O1043       O  0.23119851  0.82390705  0.62558304    -0.37700
O1044       O  0.26982658  0.88175446  0.62761185    -0.33900
O1045       O  0.23548546  0.81990944  0.53045582    -0.35300
O1046       O  0.26568726  0.87935947  0.52934822    -0.39600
C1047       C  0.07592786  0.64963462  0.56760585    -0.13300
C1048       C  0.09335325  0.68159771  0.55728619     0.17100
C1049       C  0.09412717  0.67867923  0.53757546     0.03400
C1050       C  0.07647082  0.64410796  0.52864695    -0.11800
C1051       C  0.05905244  0.61182496  0.53888906    -0.02800
C1052       C  0.05906551  0.61500206  0.55867724     0.02700
C1053       C  0.11087728  0.71773778  0.56733390     0.09500
N1054       N  0.11402796  0.71038233  0.52647350     0.65900
H1055       H  0.07749908  0.64263155  0.51351299     0.18800
N1056       N  0.04250035  0.58349960  0.56999672     0.76300
H1057       H  0.07545349  0.65160313  0.58275268     0.10300
C1058       C  0.10099723  0.74444538  0.56375437     0.04000
C1059       C  0.12108245  0.77947581  0.57205574    -0.04700
C1060       C  0.14987849  0.78881220  0.58523866    -0.23100
C1061       C  0.15942621  0.76100114  0.58838854     0.13200
C1062       C  0.13978458  0.72634876  0.57967122    -0.12300
N1063       N  0.07027142  0.73630373  0.55187785     0.64900
H1064       H  0.11368057  0.79918058  0.56755863     0.12700
N1065       N  0.18984466  0.76727495  0.59984092     0.61500
H1066       H  0.14809743  0.70615757  0.58214515     0.08900
O1067       O  0.01065112  0.57242540  0.57624316    -0.39900
O1068       O  0.06171225  0.57059183  0.57622226    -0.39100
O1069       O  0.14708740  0.73287310  0.53033192    -0.39100
O1070       O  0.10020816  0.71349822  0.51147408    -0.36800
O1071       O  0.22004342  0.77631361  0.59197264    -0.37700
O1072       O  0.18346749  0.75127510  0.61522382    -0.33900
O1073       O  0.03999791  0.70769334  0.55423067    -0.35300
O1074       O  0.07209710  0.75946405  0.54044250    -0.39600
C1075       C  0.15279088  0.89956792  0.56837297    -0.13300
C1076       C  0.11644479  0.88678661  0.57341036     0.17100
C1077       C  0.10028505  0.85910097  0.58644392     0.03400
C1078       C  0.12008791  0.84312639  0.59332246    -0.11800
C1079       C  0.15612767  0.85323693  0.58716610    -0.02800
C1080       C  0.17328288  0.88427880  0.57528952     0.02700
C1081       C  0.09542365  0.90091592  0.56351065     0.09500
N1082       N  0.06302224  0.84526785  0.59192999     0.65900
H1083       H  0.10607093  0.82055621  0.60266064     0.18800
N1084       N  0.21126497  0.90231444  0.57043677     0.76300
H1085       H  0.16553894  0.92203740  0.55885261     0.10300
C1086       C  0.08821125  0.92761391  0.57155434     0.04000
C1087       C  0.07110814  0.94245433  0.56079160    -0.04700
C1088       C  0.06127944  0.93124208  0.54194215    -0.23100
C1089       C  0.06783098  0.90362116  0.53420210     0.13200
C1090       C  0.08490661  0.88902980  0.54497385    -0.12300
N1091       N  0.09957559  0.94103713  0.59029901     0.64900
H1092       H  0.06648296  0.96356145  0.56707580     0.12700
N1093       N  0.05705485  0.88969068  0.51547285     0.61500
H1094       H  0.09031440  0.86836581  0.53875170     0.08900
O1095       O  0.23510620  0.91983334  0.58291307    -0.39900
O1096       O  0.22014889  0.90912832  0.55349164    -0.39100
O1097       O  0.03751594  0.82597763  0.58048646    -0.39100
O1098       O  0.05555132  0.84748912  0.60888948    -0.36800
O1099       O  0.08105896  0.89802217  0.50297086    -0.37700
O1100       O  0.02464353  0.86476706  0.51213707    -0.33900
O1101       O  0.13077965  0.96842617  0.59327637    -0.35300
O1102       O  0.07648208  0.92960917  0.60333768    -0.39600
C1103       C  0.47878946  0.52069902  0.98173209    -0.13300
C1104       C  0.00002649  0.50675960  0.98927165     0.17100
C1105       C  0.01651864  0.49264485  0.97691866     0.03400
C1106       C  0.01337954  0.99448152  0.95839584    -0.11800
C1107       C  0.99337939  0.50998082  0.94956069    -0.02800
C1108       C  0.47484726  0.52245775  0.96232125     0.02700
C1109       C  0.00213475  0.50436528  0.01001280     0.09500
N1110       N  0.03887120  0.47842811  0.98373034     0.65900
H1111       H  0.02737823  0.98392669  0.94959105     0.18800
N1112       N  0.45044934  0.53521469  0.95655911     0.76300
H1113       H  0.46385926  0.52925345  0.99111647     0.10300
C1114       C  0.00952699  0.53386819  0.02228901     0.04000
C1115       C  0.00967638  0.52973309  0.04166183    -0.04700
C1116       C  0.00503055  0.49736462  0.04992964    -0.23100
C1117       C  0.99351679  0.96674679  0.03756510     0.13200
C1118       C  0.99326034  0.97125617  0.01816376    -0.12300
N1119       N  0.01740253  0.56860338  0.01538461     0.64900
H1120       H  0.01350950  0.55301616  0.04997743     0.12700
N1121       N  0.97834277  0.93012951  0.04353139     0.61500
H1122       H  0.98474764  0.94762789  0.00885468     0.08900
O1123       O  0.45452326  0.56495360  0.96347230    -0.39900
O1124       O  0.41977820  0.51288287  0.94945225    -0.39100
O1125       O  0.03756123  0.95155672  0.97974037    -0.39100
O1126       O  0.06764107  0.49894537  0.99298493    -0.36800
O1127       O  0.44608102  0.91428858  0.04961053    -0.37700
O1128       O  0.99209666  0.91097480  0.03763171    -0.33900
O1129       O  0.99856962  0.58304621  0.02071066    -0.35300
O1130       O  0.04521651  0.58637822  0.00536731    -0.39600
C1131       C  0.14047951  0.84792369  0.68533733    -0.13300
C1132       C  0.15834730  0.83116191  0.67638357     0.17100
C1133       C  0.17308669  0.81411480  0.68720529     0.03400
C1134       C  0.16998263  0.81442963  0.70668775    -0.11800
C1135       C  0.15482749  0.83384343  0.71630792    -0.02800
C1136       C  0.13783567  0.84886681  0.70492394     0.02700
C1137       C  0.15981997  0.83009303  0.65565066     0.09500
N1138       N  0.19194331  0.79685320  0.67864456     0.65900
H1139       H  0.17969104  0.79880681  0.71401718     0.18800
N1140       N  0.11483184  0.86206086  0.71272025     0.76300
H1141       H  0.12749942  0.85954117  0.67698426     0.10300
C1142       C  0.14280186  0.79701752  0.64516694     0.04000
C1143       C  0.14730613  0.79729220  0.62570866    -0.04700
C1144       C  0.16909097  0.82990485  0.61597040    -0.23100
C1145       C  0.18345816  0.86338108  0.62687201     0.13200
C1146       C  0.17935356  0.86279954  0.64635055    -0.12300
N1147       N  0.11975995  0.76296764  0.65396856     0.64900
H1148       H  0.13194584  0.77137735  0.61838968     0.12700
N1149       N  0.20049042  0.89851813  0.61862119     0.61500
H1150       H  0.19141601  0.88842246  0.65432988     0.08900
O1151       O  0.08060594  0.84284907  0.71049683    -0.39900
O1152       O  0.12821138  0.89552069  0.71698521    -0.39100
O1153       O  0.21772232  0.81420371  0.66738767    -0.39100
O1154       O  0.18590315  0.76604195  0.68398151    -0.36800
O1155       O  0.18075145  0.91263686  0.61521584    -0.37700
O1156       O  0.23421040  0.91968164  0.62152985    -0.33900
O1157       O  0.09535244  0.76025915  0.66527699    -0.35300
O1158       O  0.12099179  0.73460075  0.64891092    -0.39600
C1159       C  0.40391460  0.85700736  0.88157149    -0.13300
C1160       C  0.42869207  0.86107477  0.89568704     0.17100
C1161       C  0.43638135  0.83253798  0.89869944     0.03400
C1162       C  0.41969353  0.80074894  0.88722550    -0.11800
C1163       C  0.39446966  0.79652335  0.87319182    -0.02800
C1164       C  0.38691421  0.82523609  0.87032277     0.02700
C1165       C  0.44711287  0.89627732  0.90635487     0.09500
N1166       N  0.45947922  0.83473933  0.91389847     0.65900
H1167       H  0.42523389  0.77866928  0.88981358     0.18800
N1168       N  0.36321430  0.82321609  0.85550657     0.76300
H1169       H  0.39837270  0.87910468  0.87898885     0.10300
C1170       C  0.48461346  0.92096200  0.90442512     0.04000
C1171       C  0.49959464  0.95592719  0.91279303    -0.04700
C1172       C  0.47755416  0.96868415  0.92191132    -0.23100
C1173       C  0.44097397  0.94118006  0.92608401     0.13200
C1174       C  0.42611309  0.90616011  0.91775888    -0.12300
N1175       N  0.00728358  0.91192385  0.89290755     0.64900
H1176       H  0.02864165  0.97325885  0.91116105     0.12700
N1177       N  0.41789808  0.94783758  0.93846122     0.61500
H1178       H  0.39759244  0.88644877  0.92009827     0.08900
O1179       O  0.37404031  0.82641395  0.83878733    -0.39900
O1180       O  0.33435405  0.82432615  0.85929781    -0.39100
O1181       O  0.45004463  0.83656431  0.93053287    -0.39100
O1182       O  0.48640335  0.82976739  0.91089318    -0.36800
O1183       O  0.38794453  0.94360338  0.93219071    -0.37700
O1184       O  0.42061451  0.94453594  0.95578645    -0.33900
O1185       O  0.99930519  0.90309465  0.87584917    -0.35300
O1186       O  0.53806426  0.91787412  0.89917978    -0.39600
C1187       C  0.07579986  0.55625538  0.89299913    -0.13300
C1188       C  0.10608553  0.57066951  0.90499346     0.17100
C1189       C  0.10062659  0.56910951  0.92439892     0.03400
C1190       C  0.06496414  0.55186003  0.93153844    -0.11800
C1191       C  0.03362471  0.53405270  0.91966962    -0.02800
C1192       C  0.04004783  0.53866127  0.89993725     0.02700
C1193       C  0.14317582  0.58861868  0.89680634     0.09500
N1194       N  0.13113950  0.58457287  0.93707006     0.65900
H1195       H  0.06256762  0.55302535  0.94653767     0.18800
N1196       N  0.01074193  0.52613276  0.88659222     0.76300
H1197       H  0.07995937  0.55872319  0.87800072     0.10300
C1198       C  0.15946674  0.56798807  0.89064774     0.04000
C1199       C  0.19298849  0.58494408  0.88127787    -0.04700
C1200       C  0.21077898  0.62255706  0.87760306    -0.23100
C1201       C  0.19472088  0.64338987  0.88443839     0.13200
C1202       C  0.16121623  0.62626171  0.89392012    -0.12300
N1203       N  0.14165163  0.52951121  0.89336551     0.64900
H1204       H  0.20447705  0.56815634  0.87635881     0.12700
N1205       N  0.21143325  0.68172614  0.88151646     0.61500
H1206       H  0.14873845  0.64228490  0.89865261     0.08900
O1207       O  0.00297378  0.04524297  0.87940535    -0.39900
O1208       O  0.49991930  0.99215450  0.87867721    -0.39100
O1209       O  0.13609237  0.61060229  0.94808886    -0.39100
O1210       O  0.15013198  0.56912947  0.93899408    -0.36800
O1211       O  0.20010872  0.69320666  0.86842570    -0.37700
O1212       O  0.23320779  0.70404641  0.89367642    -0.33900
O1213       O  0.13315482  0.01742960  0.90872761    -0.35300
O1214       O  0.18654001  0.05080857  0.92201059    -0.39600
C1215       C  0.46801969  0.58500066  0.91409423    -0.13300
C1216       C  0.43606165  0.56469065  0.90355621     0.17100
C1217       C  0.42235393  0.52703585  0.90071035     0.03400
C1218       C  0.44057691  0.51025157  0.90856027    -0.11800
C1219       C  0.47241773  0.52984772  0.91988270    -0.02800
C1220       C  0.48649539  0.56853134  0.92207942     0.02700
C1221       C  0.41941645  0.58379490  0.89400938     0.09500
N1222       N  0.39145031  0.50587054  0.88866742     0.65900
H1223       H  0.43200371  0.98126504  0.90428307     0.18800
N1224       N  0.02142870  0.59234968  0.93070480     0.76300
H1225       H  0.47941059  0.61431548  0.91570662     0.10300
C1226       C  0.38395780  0.57743678  0.89836742     0.04000
C1227       C  0.36775968  0.59296016  0.88746329    -0.04700
C1228       C  0.38680815  0.61568852  0.87260093    -0.23100
C1229       C  0.42257048  0.62248924  0.86856928     0.13200
C1230       C  0.43853434  0.60663967  0.87928848    -0.12300
N1231       N  0.36471595  0.55637234  0.91416302     0.64900
H1232       H  0.34056138  0.58807715  0.89095557     0.12700
N1233       N  0.44190487  0.64304862  0.85273637     0.61500
H1234       H  0.46551310  0.61103901  0.87564172     0.08900
O1235       O  0.02420658  0.59668290  0.94826469    -0.39900
O1236       O  0.04717466  0.61490838  0.92072835    -0.39100
O1237       O  0.39646233  0.01497884  0.87025274    -0.39100
O1238       O  0.36380853  0.47802123  0.89477857    -0.36800
O1239       O  0.47142016  0.67276159  0.85511345    -0.37700
O1240       O  0.43311718  0.62839091  0.83657219    -0.33900
O1241       O  0.37882028  0.56607417  0.93031060    -0.35300
O1242       O  0.33184071  0.53132489  0.91241064    -0.39600
C1243       C  0.22686619  0.76406323  0.79263409    -0.13300
C1244       C  0.22487922  0.76041098  0.77310544     0.17100
C1245       C  0.24263251  0.74361018  0.76381607     0.03400
C1246       C  0.26116485  0.72978950  0.77421200    -0.11800
C1247       C  0.26285672  0.73289697  0.79392012    -0.02800
C1248       C  0.24591296  0.75107862  0.80306297     0.02700
C1249       C  0.20595229  0.77652877  0.76284325     0.09500
N1250       N  0.24146871  0.73983475  0.74386130     0.65900
H1251       H  0.27403494  0.71634329  0.76677704     0.18800
N1252       N  0.24853936  0.75769601  0.82287382     0.76300
H1253       H  0.21424665  0.77802452  0.79984425     0.10300
C1254       C  0.16859435  0.76433425  0.76562800     0.04000
C1255       C  0.15243941  0.78341540  0.75812897    -0.04700
C1256       C  0.17228461  0.81436086  0.74693954    -0.23100
C1257       C  0.21072650  0.82714280  0.74493284     0.13200
C1258       C  0.22662334  0.80784408  0.75256357    -0.12300
N1259       N  0.14669238  0.73260194  0.77628745     0.64900
H1260       H  0.12426145  0.77385758  0.76175580     0.12700
N1261       N  0.23461013  0.86051024  0.73587262     0.61500
H1262       H  0.25583751  0.81838141  0.75111784     0.08900
O1263       O  0.22033357  0.74137352  0.83281328    -0.39900
O1264       O  0.27684511  0.78466441  0.82978991    -0.39100
O1265       O  0.26992690  0.75879050  0.73448315    -0.39100
O1266       O  0.21307398  0.71514211  0.73574899    -0.36800
O1267       O  0.24560669  0.85908823  0.71955078    -0.37700
O1268       O  0.25326342  0.88889804  0.74591248    -0.33900
O1269       O  0.13109209  0.73508025  0.79098000    -0.35300
O1270       O  0.14021426  0.70158301  0.77010173    -0.39600
C1271       C  0.00555822  0.75162606  0.78465584    -0.13300
C1272       C  0.00386625  0.76317075  0.76674433     0.17100
C1273       C  0.47009206  0.75709463  0.75962957     0.03400
C1274       C  0.43858440  0.74021073  0.77074334    -0.11800
C1275       C  0.44030679  0.72923492  0.78899005    -0.02800
C1276       C  0.47432055  0.73470634  0.79574960     0.02700
C1277       C  0.03849185  0.78316993  0.75643492     0.09500
N1278       N  0.46765375  0.76864626  0.74134930     0.65900
H1279       H  0.41290087  0.73633552  0.76520315     0.18800
N1280       N  0.47751768  0.72196549  0.81355328     0.76300
H1281       H  0.03148483  0.75594129  0.79012032     0.10300
C1282       C  0.06245982  0.82008980  0.76074281     0.04000
C1283       C  0.09807545  0.83702029  0.75378588    -0.04700
C1284       C  0.11189394  0.81727272  0.74335457    -0.23100
C1285       C  0.08553941  0.78106128  0.73712081     0.13200
C1286       C  0.04966814  0.76435618  0.74405473    -0.12300
N1287       N  0.05149168  0.84033217  0.77301311     0.64900
H1288       H  0.11477385  0.86573156  0.75722032     0.12700
N1289       N  0.09448582  0.76057609  0.72387356     0.61500
H1290       H  0.03076976  0.73609782  0.74020258     0.08900
O1291       O  0.99221298  0.74455961  0.82707313    -0.39900
O1292       O  0.47330654  0.69026254  0.81456876    -0.39100
O1293       O  0.46095257  0.74715833  0.72740610    -0.39100
O1294       O  0.96761424  0.79831462  0.73941358    -0.36800
O1295       O  0.08691143  0.76077434  0.70683496    -0.37700
O1296       O  0.09862552  0.73465092  0.72946207    -0.33900
O1297       O  0.05568060  0.84012570  0.79047154    -0.35300
O1298       O  0.04219917  0.86204025  0.76634384    -0.39600
C1299       C  0.26276230  0.51072805  0.76894808    -0.13300
C1300       C  0.22644990  0.98507983  0.77197448     0.17100
C1301       C  0.20705745  0.49536877  0.78611705     0.03400
C1302       C  0.22571053  0.52867205  0.79617390    -0.11800
C1303       C  0.26245204  0.55353784  0.79251335    -0.02800
C1304       C  0.28104149  0.54452158  0.77870628     0.02700
C1305       C  0.21019807  0.94777244  0.76286955     0.09500
N1306       N  0.17288869  0.96584036  0.79297827     0.65900
H1307       H  0.21113311  0.53556828  0.80665909     0.18800
N1308       N  0.31916127  0.56819583  0.77547399     0.76300
H1309       H  0.27801766  0.50339495  0.75912738     0.10300
C1310       C  0.20879820  0.94186086  0.74327155     0.04000
C1311       C  0.19311012  0.90608972  0.73565144    -0.04700
C1312       C  0.17564577  0.87502491  0.74695604    -0.23100
C1313       C  0.18005513  0.88172103  0.76679230     0.13200
C1314       C  0.19733650  0.91742574  0.77426545    -0.12300
N1315       N  0.22190577  0.97170875  0.73079947     0.64900
H1316       H  0.19405795  0.90323338  0.72064619     0.12700
N1317       N  0.16788305  0.85277642  0.77978014     0.61500
H1318       H  0.20047918  0.92138151  0.78933214     0.08900
O1319       O  0.32946793  0.58538722  0.76045422    -0.39900
O1320       O  0.34262332  0.56860397  0.78658045    -0.39100
O1321       O  0.16597039  0.95879988  0.81006742    -0.39100
O1322       O  0.14711081  0.95180199  0.78110988    -0.36800
O1323       O  0.19134745  0.84629600  0.78705767    -0.37700
O1324       O  0.13777670  0.84227250  0.78801885    -0.33900
O1325       O  0.24437705  0.97500404  0.71813332    -0.35300
O1326       O  0.21378358  0.49268248  0.72921757    -0.39600
O1327       O  0.89230608  0.24506717  0.85639031    -0.77400
C1328       C  0.87010953  0.13230331  0.86128372     0.83700
O1329       O  0.87355591  0.19756894  0.79269221    -0.78500
O1330       O  0.77936837  0.08614714  0.82058374    -0.80000
O1331       O  0.75911008  0.17016941  0.86034525    -0.79800
O1332       O  0.84116278  0.24865781  0.85841683    -0.78400
Zn1333     Zn  0.87792005  0.19865539  0.84066207     1.55700
O1334       O  0.75650525  0.11595226  0.85951179    -0.79800
Cd1335     Cd  0.80346902  0.20250330  0.84371986     1.59700
Cd1336     Cd  0.82202540  0.17278623  0.80474692     1.59600
O1337       O  0.78350796  0.22058816  0.82290545    -0.79800
O1338       O  0.82664842  0.17469321  0.83291351    -1.90300
Cd1339     Cd  0.80033484  0.12401906  0.84266798     1.59900
O1340       O  0.79444579  0.19997542  0.79603755    -0.79800
O1341       O  0.83580039  0.11341272  0.85795550    -0.78400
C1342       C  0.90534922  0.21131654  0.80008897     0.84100
C1343       C  0.87513362  0.26156664  0.86188646     0.83800
O1344       O  0.88903687  0.16471856  0.85543520    -0.77400
C1345       C  0.74377735  0.13671503  0.86476772     0.84600
O1346       O  0.90972263  0.21280898  0.81778349    -0.77500
C1347       C  0.78150054  0.21762553  0.80514220     0.84700
C1348       C  0.77962028  0.08817091  0.80279402     0.85000
O1349       O  0.79465122  0.11875066  0.79465278    -0.79900
C1350       C  0.65198155  0.33532617  0.73941305    -0.01400
C1351       C  0.49416803  0.01031360  0.92810966    -0.01400
O1352       O  0.99478982  0.41678636  0.47531791    -0.77400
C1353       C  0.58434590  0.02705683  0.46844819     0.83700
O1354       O  0.52879341  0.46671266  0.53961934    -0.78500
O1355       O  0.54622084  0.07747219  0.51096965    -0.80000
O1356       O  0.93694789  0.99542086  0.47687122    -0.79800
O1357       O  0.94253677  0.41775037  0.47245173    -0.78400
Zn1358     Zn  0.52689528  0.46094719  0.49191648     1.55700
O1359       O  0.99022433  0.04647276  0.47414134    -0.79800
Cd1360     Cd  0.94980361  0.45998400  0.49034270     1.59700
Cd1361     Cd  0.50118498  0.49126513  0.52806818     1.59600
O1362       O  0.91409243  0.43749182  0.51223972    -0.79800
O1363       O  0.50113593  0.48677414  0.49998834    -1.90300
Cd1364     Cd  0.52678509  0.03831856  0.48963514     1.59900
O1365       O  0.94786897  0.46319876  0.53801834    -0.79800
O1366       O  0.56998651  0.04686018  0.47255226    -0.78400
C1367       C  0.54198562  0.44784705  0.53210557     0.84100
C1368       C  0.96265411  0.40371575  0.46845554     0.83800
O1369       O  0.57154379  0.99512322  0.47490267    -0.77400
C1370       C  0.95600268  0.02760620  0.47077449     0.84600
O1371       O  0.54236399  0.44349813  0.51438300    -0.77500
C1372       C  0.91721848  0.44210489  0.52997207     0.84700
C1373       C  0.54490812  0.07721906  0.52880588     0.85000
O1374       O  0.52948275  0.04720952  0.53751194    -0.79900
C1375       C  0.83250516  0.15240399  0.40559971    -0.01400
C1376       C  0.67069208  0.33010452  0.59519730    -0.01400
O1377       O  0.74634813  0.39637999  0.14169463    -0.77400
C1378       C  0.63540335  0.37511801  0.13617475     0.83700
O1379       O  0.70390957  0.39157416  0.20551299    -0.78500
O1380       O  0.59212037  0.29286683  0.17852902    -0.80000
O1381       O  0.67253900  0.26242504  0.14404066    -0.79800
O1382       O  0.74841906  0.34450789  0.13999238    -0.78400
Zn1383     Zn  0.70300299  0.38639701  0.15780063     1.55700
O1384       O  0.61949723  0.26201239  0.14205307    -0.79800
Cd1385     Cd  0.70708577  0.31148583  0.15812062     1.59700
Cd1386     Cd  0.67904224  0.33768381  0.19521854     1.59600
O1387       O  0.73011426  0.29962358  0.18072873    -0.79800
O1388       O  0.67981312  0.33681940  0.16700929    -1.90300
Cd1389     Cd  0.62873215  0.30913565  0.15686679     1.59900
O1390       O  0.70693808  0.31257856  0.20614495    -0.79800
O1391       O  0.61646159  0.34167978  0.14045546    -0.78400
C1392       C  0.71877662  0.42202582  0.19724529     0.84100
C1393       C  0.76058237  0.37758976  0.13542696     0.83800
O1394       O  0.66839666  0.39491618  0.14174387    -0.77400
C1395       C  0.63914847  0.24706765  0.13871396     0.84600
O1396       O  0.72020660  0.42321868  0.17941863    -0.77500
C1397       C  0.72643395  0.30028365  0.19847666     0.84700
C1398       C  0.59456591  0.29505712  0.19632431     0.85000
O1399       O  0.62544327  0.31075347  0.20480871    -0.79900
C1400       C  0.51035599  0.99488984  0.07234070    -0.01400
C1401       C  0.84793628  0.17199321  0.26138768    -0.01400
C1402       C  0.91010360  0.47567158  0.08430494    -0.13300
C1403       C  0.89680377  0.44472737  0.09517740     0.17100
C1404       C  0.92020412  0.43119134  0.09950262     0.03400
C1405       C  0.95613662  0.44881287  0.09315424    -0.11800
C1406       C  0.96991589  0.47803697  0.08051008    -0.02800
C1407       C  0.94613915  0.49301508  0.07745196     0.02700
C1408       C  0.86002555  0.42886084  0.10374097     0.09500
N1409       N  0.90857551  0.40069360  0.11138254     0.65900
H1410       H  0.97376485  0.44062545  0.10011954     0.18800
N1411       N  0.95706715  0.02542263  0.07009814     0.76300
H1412       H  0.89268646  0.48762632  0.08178853     0.10300
C1413       C  0.85112230  0.44954285  0.11642348     0.04000
C1414       C  0.81757307  0.43274283  0.12577110    -0.04700
C1415       C  0.79292042  0.39524481  0.12310089    -0.23100
C1416       C  0.80110791  0.37500766  0.10970977     0.13200
C1417       C  0.83453109  0.39192233  0.10022596    -0.12300
N1418       N  0.87699243  0.48684395  0.12102244     0.64900
H1419       H  0.81183677  0.44866809  0.13605628     0.12700
N1420       N  0.77550233  0.33753784  0.10533441     0.61500
H1421       H  0.84086968  0.37604211  0.09019342     0.08900
O1422       O  0.97680365  0.05423334  0.07963273    -0.39900
O1423       O  0.93881448  0.02697725  0.05651374    -0.39100
O1424       O  0.90442925  0.37077057  0.10471337    -0.39100
O1425       O  0.90558393  0.40448400  0.12877194    -0.36800
O1426       O  0.74552436  0.32922288  0.09737986    -0.37700
O1427       O  0.78450380  0.31331029  0.10741949    -0.33900
O1428       O  0.87524192  0.00854646  0.12495126    -0.35300
O1429       O  0.91056738  0.98675418  0.13307336    -0.39600
C1430       C  0.54797364  0.07391571  0.11086098    -0.13300
C1431       C  0.57009515  0.10467301  0.10049634     0.17100
C1432       C  0.57730258  0.09980783  0.08183017     0.03400
C1433       C  0.56028739  0.06482574  0.07346091    -0.11800
C1434       C  0.53413283  0.03332448  0.08288793    -0.02800
C1435       C  0.53163718  0.03855195  0.10264796     0.02700
C1436       C  0.58785261  0.14141216  0.10976246     0.09500
N1437       N  0.60132689  0.13040804  0.07098351     0.65900
H1438       H  0.56772876  0.06326552  0.05916683     0.18800
N1439       N  0.51545599  0.00865616  0.11502765     0.76300
H1440       H  0.54471846  0.07729447  0.12572269     0.10300
C1441       C  0.56784396  0.15932833  0.11408690     0.04000
C1442       C  0.58500976  0.19356918  0.12337676    -0.04700
C1443       C  0.62230850  0.21072477  0.12858433    -0.23100
C1444       C  0.64229445  0.19242410  0.12410790     0.13200
C1445       C  0.62498614  0.15825998  0.11470319    -0.11100
N1446       N  0.53014936  0.14325093  0.10881043     0.64900
H1447       H  0.56888093  0.20672313  0.12649586     0.12700
N1448       N  0.67998036  0.20765661  0.12923346     0.61500
H1449       H  0.64051114  0.14448016  0.11149608     0.08900
O1450       O  0.53128272  0.99023942  0.11764735    -0.39900
O1451       O  0.49185911  0.00682339  0.12666855    -0.39100
O1452       O  0.63291637  0.13574481  0.06703051    -0.39100
O1453       O  0.58937073  0.14921906  0.06338474    -0.36800
O1454       O  0.68833744  0.20136159  0.14510042    -0.37700
O1455       O  0.70437622  0.22185962  0.11693110    -0.33900
O1456       O  0.50554900  0.12861899  0.12097493    -0.35300
O1457       O  0.52159553  0.14680088  0.09241593    -0.39600
C1458       C  0.56960011  0.40497318  0.11849155    -0.13300
C1459       C  0.58506540  0.41998955  0.10118297     0.17100
C1460       C  0.61772486  0.42054851  0.09556554     0.03400
C1461       C  0.63458356  0.40707781  0.10749866    -0.11800
C1462       C  0.61850940  0.39139569  0.12454231    -0.02800
C1463       C  0.58572133  0.39034930  0.13001124     0.02700
C1464       C  0.56724663  0.43623954  0.08981057     0.09500
N1465       N  0.63292247  0.43278583  0.07743351     0.65900
H1466       H  0.65944105  0.40729720  0.10306031     0.18800
N1467       N  0.56934392  0.37588716  0.14762004     0.76300
H1468       H  0.54508061  0.40509382  0.12324310     0.10300
C1469       C  0.52970244  0.41662112  0.08566179     0.04000
C1470       C  0.51238037  0.43439631  0.07795803    -0.04700
C1471       C  0.53081176  0.47248975  0.07480406    -0.23100
C1472       C  0.56992138  0.48922834  0.07495189     0.13200
C1473       C  0.58734093  0.47210871  0.08365893    -0.12300
N1474       N  0.50847463  0.37847087  0.08936583     0.64900
H1475       H  0.98393175  0.41756329  0.07530571     0.12700
N1476       N  0.59282120  0.02088578  0.06385373     0.61500
H1477       H  0.61675682  0.48662586  0.08523069     0.08900
O1478       O  0.53945810  0.34623343  0.14811638    -0.39900
O1479       O  0.58253154  0.39471827  0.16249329    -0.39100
O1480       O  0.66682296  0.45424267  0.07571275    -0.39100
O1481       O  0.61320632  0.41916288  0.06296278    -0.36800
O1482       O  0.58599274  0.01960102  0.04657647    -0.37700
O1483       O  0.62331569  0.04562556  0.07014700    -0.33900
O1484       O  0.97975988  0.36669773  0.09898427    -0.35300
O1485       O  0.51676540  0.35612710  0.08171769    -0.39600
C1486       C  0.81154591  0.21801920  0.22724124    -0.13300
C1487       C  0.80000022  0.23717697  0.23920290     0.17100
C1488       C  0.80330502  0.23495563  0.25868745     0.03400
C1489       C  0.81788635  0.21379270  0.26570616    -0.11800
C1490       C  0.83023978  0.19464536  0.25373101    -0.02800
C1491       C  0.82747378  0.19821707  0.23400042     0.02700
C1492       C  0.78365149  0.25809489  0.23069306     0.09500
N1493       N  0.79364755  0.25542125  0.27158120     0.65900
H1494       H  0.82135608  0.21457554  0.28068145     0.18800
N1495       N  0.84166826  0.18294499  0.22034435     0.76300
H1496       H  0.80857121  0.21867327  0.21222710     0.10300
C1497       C  0.80022396  0.28041780  0.21513738     0.04000
C1498       C  0.78092809  0.29353083  0.20490086    -0.04700
C1499       C  0.74596616  0.28670334  0.21031607    -0.23100
C1500       C  0.73039314  0.26658137  0.22659127     0.13200
C1501       C  0.74897943  0.25202056  0.23642038    -0.12300
N1502       N  0.83677276  0.29017032  0.20961967     0.64900
H1503       H  0.79372642  0.30986145  0.19277682     0.12700
N1504       N  0.69467736  0.25853559  0.23256526     0.61500
H1505       H  0.73546503  0.23452762  0.24806986     0.08900
O1506       O  0.82003254  0.15300463  0.21218004    -0.39900
O1507       O  0.87113808  0.20424484  0.21226652    -0.39100
O1508       O  0.77145957  0.23944949  0.28461692    -0.39100
O1509       O  0.81046950  0.28985648  0.27130055    -0.36800
O1510       O  0.66685542  0.23058555  0.22598209    -0.37700
O1511       O  0.69123280  0.27624364  0.24622972    -0.33900
O1512       O  0.84377304  0.28716483  0.19265986    -0.35300
O1513       O  0.86259807  0.30428982  0.22145770    -0.39600
C1514       C  0.74453966  0.49283984  0.23744180    -0.13300
C1515       C  0.76474483  0.02320422  0.22853593     0.17100
C1516       C  0.76661770  0.02227828  0.20886473     0.03400
C1517       C  0.75915254  0.48980364  0.19944710    -0.11800
C1518       C  0.73523324  0.45715043  0.20837870    -0.02800
C1519       C  0.72800012  0.45904176  0.22766597     0.02700
C1520       C  0.78216112  0.05836816  0.23922776     0.09500
N1521       N  0.78651393  0.05522487  0.19873773     0.65900
H1522       H  0.76567144  0.48925304  0.18478362     0.18800
N1523       N  0.70328904  0.42715500  0.23747626     0.76300
H1524       H  0.73853817  0.49398946  0.25214425     0.10300
C1525       C  0.76859434  0.08278474  0.23843355     0.04000
C1526       C  0.78879349  0.11788481  0.24647776    -0.04700
C1527       C  0.82382767  0.13058882  0.25481974    -0.23100
C1528       C  0.83378962  0.10312811  0.25806163     0.13200
C1529       C  0.81373498  0.06820231  0.24967252    -0.12300
N1530       N  0.73405920  0.07215968  0.22967833     0.64900
H1531       H  0.77628968  0.13495484  0.24596155     0.12700
N1532       N  0.86413029  0.10961288  0.26963054     0.61500
H1533       H  0.82318465  0.04861585  0.25118698     0.08900
O1534       O  0.66977228  0.41788328  0.23819385    -0.39900
O1535       O  0.71573456  0.41200038  0.24787940    -0.39100
O1536       O  0.82069406  0.07464068  0.20104551    -0.39100
O1537       O  0.77093104  0.06236531  0.18578149    -0.36800
O1538       O  0.85871132  0.10459844  0.28695371    -0.37700
O1539       O  0.88996916  0.10643569  0.26233963    -0.33900
O1540       O  0.70520594  0.04595167  0.23601590    -0.35300
O1541       O  0.73173530  0.09177387  0.21731449    -0.39600
C1542       C  0.02395787  0.24956647  0.23460135    -0.13300
C1543       C  0.99262837  0.24644156  0.22599067     0.17100
C1544       C  0.49510777  0.26034939  0.20807372     0.03400
C1545       C  0.52861841  0.27635900  0.19877964    -0.11800
C1546       C  0.56013732  0.27903247  0.20713765    -0.02800
C1547       C  0.55764722  0.26564747  0.22532151     0.02700
C1548       C  0.95708795  0.22723065  0.23550657     0.09500
N1549       N  0.46383100  0.25870488  0.19926048     0.65900
H1550       H  0.52998146  0.28695138  0.18496818     0.18800
N1551       N  0.58864343  0.26702425  0.23428716     0.76300
H1552       H  0.02201703  0.23864749  0.24838042     0.10300
C1553       C  0.93349680  0.18991276  0.23205717     0.04000
C1554       C  0.89907247  0.17256576  0.24041996    -0.04700
C1555       C  0.88725098  0.19136983  0.25293702    -0.23100
C1556       C  0.91127634  0.23002103  0.25550709     0.13200
C1557       C  0.94572425  0.24698626  0.24700837    -0.12300
N1558       N  0.94359614  0.16954086  0.21937555     0.64900
H1559       H  0.88130726  0.14464455  0.23597254     0.12700
N1560       N  0.90020200  0.25331981  0.26516318     0.61500
H1561       H  0.96344537  0.27619502  0.24901437     0.08900
O1562       O  0.59486898  0.24072732  0.23205658    -0.39900
O1563       O  0.60647386  0.29174458  0.24647532    -0.39100
O1564       O  0.45698439  0.28450267  0.20195097    -0.39100
O1565       O  0.94707040  0.23510954  0.18648833    -0.36800
O1566       O  0.89938044  0.25443141  0.28280110    -0.37700
O1567       O  0.89840558  0.27788889  0.25626080    -0.33900
O1568       O  0.96188282  0.15534787  0.22525309    -0.35300
O1569       O  0.93015593  0.16163211  0.20304996    -0.39600
C1570       C  0.82071629  0.17265554  0.35379426    -0.13300
C1571       C  0.83662839  0.15532342  0.34359911     0.17100
C1572       C  0.85181113  0.13730304  0.35339355     0.03400
C1573       C  0.85094785  0.13712379  0.37303874    -0.11800
C1574       C  0.83325836  0.15284984  0.38363208    -0.02800
C1575       C  0.81887805  0.17184840  0.37336487     0.02700
C1576       C  0.83998562  0.15931755  0.32289599     0.09500
N1577       N  0.86777488  0.11851091  0.34355807     0.65900
H1578       H  0.86495155  0.12483599  0.37978301     0.18800
N1579       N  0.80420700  0.19255989  0.38244737     0.76300
H1580       H  0.81039054  0.18800038  0.34648666     0.10300
C1581       C  0.80931551  0.14940065  0.31140757     0.04000
C1582       C  0.81364800  0.15476153  0.29212388    -0.04700
C1583       C  0.84832915  0.17076956  0.28334874    -0.23100
C1584       C  0.87958686  0.18084850  0.29535943     0.13200
C1585       C  0.87465635  0.17533618  0.31473361    -0.12300
N1586       N  0.77327522  0.13314726  0.31907570     0.64900
H1587       H  0.78914471  0.14590311  0.28374036     0.12700
N1588       N  0.91646615  0.19543851  0.28877208     0.61500
H1589       H  0.89847522  0.18347497  0.32357881     0.08900
O1590       O  0.76996329  0.17848145  0.38404178    -0.39900
O1591       O  0.82347889  0.22693812  0.38306731    -0.39100
O1592       O  0.89975629  0.12521408  0.34763313    -0.39100
O1593       O  0.84844601  0.09229581  0.33236277    -0.36800
O1594       O  0.92609556  0.17438612  0.28085254    -0.37700
O1595       O  0.94114227  0.22522721  0.29587320    -0.33900
O1596       O  0.75446517  0.14892509  0.31775167    -0.35300
O1597       O  0.75903672  0.10161445  0.32569298    -0.39600
C1598       C  0.66003998  0.08664010  0.43470812    -0.13300
C1599       C  0.68267523  0.07096628  0.43545315     0.17100
C1600       C  0.67182648  0.03961012  0.44603886     0.03400
C1601       C  0.63937485  0.02528091  0.45631886    -0.11800
C1602       C  0.61712290  0.04164305  0.45622425    -0.02800
C1603       C  0.62744368  0.07228357  0.44490259     0.02700
C1604       C  0.71983054  0.09060822  0.42744459     0.09500
N1605       N  0.69389803  0.02241291  0.44664804     0.65900
H1606       H  0.63200250  0.00161914  0.46470429     0.18800
N1607       N  0.60533293  0.08931560  0.44363657     0.76300
H1608       H  0.66835659  0.11092086  0.42666866     0.10300
C1609       C  0.72582506  0.09390779  0.40811156     0.04000
C1610       C  0.76160995  0.11344016  0.40128429    -0.04700
C1611       C  0.79248992  0.13149948  0.41341673    -0.23100
C1612       C  0.78549536  0.12704018  0.43312745     0.13200
C1613       C  0.74967878  0.10713218  0.43968920    -0.12300
N1614       N  0.69585955  0.07633567  0.39519513     0.64900
H1615       H  0.76462734  0.11294382  0.38629306     0.12700
N1616       N  0.81418368  0.14102083  0.44690267     0.61500
H1617       H  0.74512439  0.10446517  0.45465965     0.08900
O1618       O  0.58053824  0.07830135  0.43128260    -0.39900
O1619       O  0.61422370  0.11863967  0.45277217    -0.39100
O1620       O  0.70828676  0.02133463  0.46189210    -0.39100
O1621       O  0.69642672  0.00558270  0.43231871    -0.36800
O1622       O  0.82181014  0.17032428  0.45574146    -0.37700
O1623       O  0.82162628  0.11875824  0.45455207    -0.33900
O1624       O  0.68681283  0.09524232  0.38547237    -0.35300
O1625       O  0.68124616  0.04237839  0.39195265    -0.39600
C1626       C  0.90250617  0.32938283  0.43315837    -0.13300
C1627       C  0.91181769  0.30240902  0.43675165     0.17100
C1628       C  0.94053827  0.31027123  0.44943598     0.03400
C1629       C  0.95837192  0.34432962  0.45886100    -0.11800
C1630       C  0.94759793  0.37062833  0.45607320    -0.02800
C1631       C  0.92008297  0.36328859  0.44263526     0.02700
C1632       C  0.89091200  0.26600530  0.42738359     0.09500
N1633       N  0.95029215  0.28314594  0.45374043     0.65900
H1634       H  0.97928718  0.34938812  0.46917292     0.18800
N1635       N  0.91006088  0.39018056  0.43824707     0.76300
H1636       H  0.88135876  0.32402152  0.42293652     0.10300
C1637       C  0.85291514  0.24460180  0.42972497     0.04000
C1638       C  0.83423946  0.20926472  0.42191199    -0.04700
C1639       C  0.85266830  0.19374160  0.41185821    -0.23100
C1640       C  0.89010915  0.21793334  0.40723197     0.13200
C1641       C  0.90889719  0.25295515  0.41559707    -0.12300
N1642       N  0.83293916  0.25802033  0.44047671     0.64900
H1643       H  0.80501816  0.19415978  0.42404248     0.12700
N1644       N  0.90994985  0.20725288  0.39454581     0.61500
H1645       H  0.93777650  0.27021524  0.41276568     0.08900
O1646       O  0.87770302  0.38382474  0.44091512    -0.39900
O1647       O  0.93234330  0.41846481  0.42979221    -0.39100
O1648       O  0.98159428  0.28795223  0.44953280    -0.39100
O1649       O  0.92926834  0.25645485  0.46356499    -0.36800
O1650       O  0.91072953  0.21455635  0.37748552    -0.37700
O1651       O  0.93492477  0.20196779  0.40086309    -0.33900
O1652       O  0.81123187  0.26593682  0.43237630    -0.35300
O1653       O  0.83386688  0.25809434  0.45812264    -0.39600
C1654       C  0.93978146  0.09002292  0.43934329    -0.13300
C1655       C  0.90180122  0.07551190  0.44083221     0.17100
C1656       C  0.88144054  0.04377822  0.45124455     0.03400
C1657       C  0.89943808  0.02796008  0.46037549    -0.11800
C1658       C  0.93777034  0.04362771  0.45971291    -0.02800
C1659       C  0.95789818  0.07482636  0.44879501     0.02700
C1660       C  0.88441203  0.09469290  0.43185796     0.09500
N1661       N  0.84276800  0.02835233  0.45347516     0.65900
H1662       H  0.88335668  0.00408815  0.46864471     0.18800
N1663       N  0.49679360  0.09148956  0.44704214     0.76300
H1664       H  0.95566217  0.11378344  0.43096077     0.10300
C1665       C  0.89770469  0.13209825  0.43545811     0.04000
C1666       C  0.88145856  0.14990446  0.42681125    -0.04700
C1667       C  0.85177565  0.13188388  0.41396904    -0.23100
C1668       C  0.83768537  0.09339888  0.41107396     0.13200
C1669       C  0.85459553  0.07579963  0.41962102    -0.12300
N1670       N  0.92647761  0.15217515  0.44882680     0.64900
H1671       H  0.89118215  0.17763698  0.43165382     0.12700
N1672       N  0.80470625  0.07092720  0.40064890     0.61500
H1673       H  0.84385278  0.04684127  0.41685481     0.08900
O1674       O  0.51734302  0.11923100  0.45709733    -0.39900
O1675       O  0.51017610  0.08228599  0.43346460    -0.39100
O1676       O  0.82136312  0.99670863  0.44691700    -0.39100
O1677       O  0.83041147  0.04412989  0.46411827    -0.36800
O1678       O  0.80689469  0.06126914  0.38403022    -0.37700
O1679       O  0.77568969  0.05167162  0.40958721    -0.33900
O1680       O  0.95578013  0.17960086  0.44379236    -0.35300
O1681       O  0.92085617  0.14535611  0.46599770    -0.39600
C1682       C  0.82310735  0.37145608  0.54628094    -0.13300
C1683       C  0.81663278  0.39095463  0.56068247     0.17100
C1684       C  0.84512688  0.42609517  0.56613373     0.03400
C1685       C  0.87864569  0.44139275  0.55670794    -0.11800
C1686       C  0.88392398  0.42291198  0.54141161    -0.02800
C1687       C  0.85604622  0.38729478  0.53643821     0.02700
C1688       C  0.78004088  0.37433095  0.56974601     0.09500
N1689       N  0.83979637  0.44745445  0.58046177     0.65900
H1690       H  0.89980010  0.46882752  0.56061103     0.18800
N1691       N  0.86097875  0.36667788  0.52157198     0.76300
H1692       H  0.80223836  0.34386238  0.54245856     0.10300
C1693       C  0.74752288  0.35831095  0.55907612     0.04000
C1694       C  0.71381815  0.34343122  0.56808321    -0.04700
C1695       C  0.71058409  0.34516900  0.58781421    -0.23100
C1696       C  0.74382069  0.35880769  0.59859504     0.13200
C1697       C  0.77760493  0.37334208  0.58929814    -0.12300
N1698       N  0.74804305  0.35859292  0.53901240     0.64900
H1699       H  0.68956048  0.33264488  0.55930449     0.12700
N1700       N  0.74499823  0.35684393  0.61860056     0.61500
H1701       H  0.80246992  0.38327331  0.59752416     0.08900
O1702       O  0.84306464  0.36022746  0.50650036    -0.39900
O1703       O  0.87953276  0.35105187  0.52438334    -0.39100
O1704       O  0.86091369  0.45922029  0.59452593    -0.39100
O1705       O  0.81619585  0.45738233  0.57825957    -0.36800
O1706       O  0.73132915  0.32608136  0.62600672    -0.37700
O1707       O  0.76862493  0.38425896  0.62789374    -0.33900
O1708       O  0.72841536  0.32951192  0.52963709    -0.35300
O1709       O  0.76510121  0.38842145  0.53068644    -0.39600
C1710       C  0.57806760  0.15105094  0.56797506    -0.13300
C1711       C  0.59458504  0.18304887  0.55763387     0.17100
C1712       C  0.59528496  0.18011791  0.53791842     0.03400
C1713       C  0.57833947  0.14548879  0.52902615    -0.11800
C1714       C  0.56182573  0.11317983  0.53928862    -0.02800
C1715       C  0.56209724  0.11638607  0.55907847     0.02700
C1716       C  0.61150446  0.21920603  0.56769488     0.09500
N1717       N  0.61434946  0.21189190  0.52676335     0.65900
H1718       H  0.57915868  0.14402059  0.51388554     0.18800
N1719       N  0.54685806  0.08491176  0.57043171     0.76300
H1720       H  0.57778483  0.15302216  0.58312693     0.10300
C1721       C  0.60105386  0.24552862  0.56413692     0.04000
C1722       C  0.62041954  0.28046372  0.57264906    -0.04700
C1723       C  0.64905564  0.29008164  0.58596668    -0.23100
C1724       C  0.65960645  0.26290160  0.58883098     0.13200
C1725       C  0.64054691  0.22828836  0.58001853    -0.12300
N1726       N  0.57057492  0.23716314  0.55202046     0.64900
H1727       H  0.61272084  0.29996678  0.56816559     0.12700
N1728       N  0.69051091  0.26981048  0.60005120     0.61500
H1729       H  0.64949127  0.20853592  0.58237628     0.08900
O1730       O  0.51675108  0.07508057  0.57855376    -0.39900
O1731       O  0.56625953  0.07097138  0.57489236    -0.39100
O1732       O  0.64705837  0.23538467  0.53070278    -0.39100
O1733       O  0.60026261  0.21423089  0.51167414    -0.36800
O1734       O  0.72072720  0.27992784  0.59197617    -0.37700
O1735       O  0.68486438  0.25333538  0.61525068    -0.33900
O1736       O  0.54061393  0.20797852  0.55391252    -0.35300
O1737       O  0.57225393  0.26052070  0.54075997    -0.39600
C1738       C  0.64830672  0.40128541  0.57191727    -0.13300
C1739       C  0.61145372  0.38633325  0.57648627     0.17100
C1740       C  0.59550036  0.35654773  0.58828231     0.03400
C1741       C  0.61619942  0.34116812  0.59468384    -0.11800
C1742       C  0.65288788  0.35355242  0.58888202    -0.02800
C1743       C  0.66953384  0.38612280  0.57799953     0.02700
C1744       C  0.58957798  0.40001186  0.56699126     0.09500
N1745       N  0.55779672  0.34066642  0.59325519     0.65900
H1746       H  0.60258204  0.31747910  0.60336317     0.18800
N1747       N  0.70755149  0.40552795  0.57315984     0.76300
H1748       H  0.66073201  0.42500796  0.56318212     0.10300
C1749       C  0.59177324  0.43351936  0.57233565     0.04000
C1750       C  0.57548116  0.44841628  0.56101727    -0.04700
C1751       C  0.55733766  0.43056539  0.54424909    -0.23100
C1752       C  0.55468197  0.39661505  0.53919908     0.13200
C1753       C  0.57064946  0.38168353  0.55058698    -0.12300
N1754       N  0.61105654  0.45295041  0.58898714     0.64900
H1755       H  0.57772450  0.47442677  0.56514516     0.12700
N1756       N  0.53575051  0.37684470  0.52257094     0.61500
H1757       H  0.56930517  0.35613360  0.54627626     0.08900
O1758       O  0.73135456  0.42240490  0.58574094    -0.39900
O1759       O  0.71627339  0.41389099  0.55632924    -0.39100
O1760       O  0.53389924  0.31361453  0.58388699    -0.39100
O1761       O  0.54892296  0.35073125  0.60826309    -0.36800
O1762       O  0.55367122  0.37846891  0.50802564    -0.37700
O1763       O  0.50227129  0.35321463  0.52335832    -0.33900
O1764       O  0.63798974  0.48482010  0.58800652    -0.35300
O1765       O  0.59901182  0.43974345  0.60480414    -0.39600
C1766       C  0.97844010  0.02076410  0.98208043    -0.13300
C1767       C  0.50007816  0.00761469  0.98989840     0.17100
C1768       C  0.51786285  0.99456139  0.97777839     0.03400
C1769       C  0.51223278  0.49350779  0.95757783    -0.11800
C1770       C  0.49404271  0.01022537  0.95008107    -0.02800
C1771       C  0.97503826  0.02251267  0.96260831     0.02700
C1772       C  0.50144254  0.00473659  0.01065057     0.09500
N1773       N  0.54182608  0.98249122  0.98488822     0.65900
H1774       H  0.52574289  0.48269517  0.94857821     0.18800
N1775       N  0.95078653  0.03524622  0.95654977     0.76300
H1776       H  0.96284935  0.02882282  0.99126673     0.10300
C1777       C  0.50777083  0.03367083  0.02310014     0.04000
C1778       C  0.50854323  0.02938442  0.04242108    -0.04700
C1779       C  0.50486938  0.99720219  0.05047900    -0.23100
C1780       C  0.49305847  0.46666522  0.03715110     0.13200
C1781       C  0.49299149  0.47088391  0.01771798    -0.12300
N1782       N  0.51401171  0.06802385  0.01644235     0.64900
H1783       H  0.51225534  0.05246544  0.05088737     0.12700
N1784       N  0.47685211  0.43006027  0.04326363     0.61500
H1785       H  0.48368815  0.44695882  0.00854362     0.08900
O1786       O  0.95479125  0.06506346  0.96330363    -0.39900
O1787       O  0.92022874  0.01290765  0.94933936    -0.39100
O1788       O  0.53217123  0.44677001  0.97877335    -0.39100
O1789       O  0.56946592  0.00414627  0.99461312    -0.36800
O1790       O  0.94447340  0.41515949  0.04937886    -0.37700
O1791       O  0.48972381  0.41003891  0.03750628    -0.33900
O1792       O  0.49284853  0.08009697  0.02123860    -0.35300
O1793       O  0.54286470  0.08812695  0.00759237    -0.39600
C1794       C  0.63966284  0.34633103  0.68624297    -0.13300
C1795       C  0.65748231  0.32920395  0.67764253     0.17100
C1796       C  0.67232324  0.31268162  0.68880587     0.03400
C1797       C  0.66940129  0.31402138  0.70829748    -0.11800
C1798       C  0.65402750  0.33365964  0.71749411    -0.02800
C1799       C  0.63713293  0.34823776  0.70576255     0.02700
C1800       C  0.65956260  0.32840540  0.65693593     0.09500
N1801       N  0.69104293  0.29494334  0.68062368     0.65900
H1802       H  0.67915795  0.29883131  0.71599738     0.18800
N1803       N  0.61446373  0.36216531  0.71315659     0.76300
H1804       H  0.62679300  0.35772850  0.67764392     0.10300
C1805       C  0.64316688  0.29565883  0.64617256     0.04000
C1806       C  0.64689196  0.29679959  0.62663995    -0.04700
C1807       C  0.66752880  0.32997815  0.61712539    -0.23100
C1808       C  0.68143005  0.36293959  0.62841801     0.13200
C1809       C  0.67802345  0.36149300  0.64790000    -0.12300
N1810       N  0.62142347  0.26107645  0.65474195     0.64900
H1811       H  0.63183040  0.27107001  0.61911946     0.12700
N1812       N  0.69718762  0.39843109  0.62066175     0.61500
H1813       H  0.68953654  0.38683476  0.65611274     0.08900
O1814       O  0.58023533  0.34331731  0.71080424    -0.39900
O1815       O  0.62826345  0.39585416  0.71694190    -0.39100
O1816       O  0.71634197  0.31142158  0.66899447    -0.39100
O1817       O  0.68533427  0.26464225  0.68659715    -0.36800
O1818       O  0.67629075  0.41142912  0.61771362    -0.37700
O1819       O  0.73055949  0.42060025  0.62393583    -0.33900
O1820       O  0.59654224  0.25678814  0.66611198    -0.35300
O1821       O  0.62436432  0.23375091  0.64946180    -0.39600
C1822       C  0.90560994  0.35825540  0.87945888    -0.13300
C1823       C  0.92877533  0.36211338  0.89436938     0.17100
C1824       C  0.93505799  0.33304592  0.89843795     0.03400
C1825       C  0.91863162  0.30088006  0.88722043    -0.11800
C1826       C  0.89491866  0.29682748  0.87242395    -0.02800
C1827       C  0.88872902  0.32605548  0.86850056     0.02700
C1828       C  0.94683982  0.39742420  0.90494538     0.09500
N1829       N  0.95627220  0.33508794  0.91447850     0.65900
H1830       H  0.92302477  0.27838148  0.89061234     0.18800
N1831       N  0.86632896  0.32393991  0.85301488     0.76300
H1832       H  0.90107985  0.38070734  0.87612170     0.10300
C1833       C  0.98403938  0.42254138  0.90265230     0.04000
C1834       C  0.99901369  0.45744634  0.91106444    -0.04700
C1835       C  0.97714503  0.46961429  0.92087513    -0.23100
C1836       C  0.94079850  0.44169157  0.92525019     0.13200
C1837       C  0.92596137  0.40680545  0.91672311    -0.12300
N1838       N  0.50657160  0.41375791  0.89095870     0.64900
H1839       H  0.52800559  0.47498105  0.90923093     0.12700
N1840       N  0.91797902  0.44776448  0.93810356     0.61500
H1841       H  0.89764489  0.38676568  0.91928731     0.08900
O1842       O  0.87827845  0.32624089  0.83656358    -0.39900
O1843       O  0.83793328  0.32643898  0.85589684    -0.39100
O1844       O  0.94520126  0.33742787  0.93066168    -0.39100
O1845       O  0.98298305  0.32936562  0.91267936    -0.36800
O1846       O  0.88773659  0.44347880  0.93226275    -0.37700
O1847       O  0.92129412  0.44397586  0.95531291    -0.33900
O1848       O  0.50263208  0.41227754  0.87340528    -0.35300
O1849       O  0.03401247  0.41343368  0.89774321    -0.39600
C1850       C  0.57529914  0.05405766  0.89290836    -0.13300
C1851       C  0.60612020  0.07006297  0.90460570     0.17100
C1852       C  0.60120436  0.06918856  0.92413218     0.03400
C1853       C  0.56564063  0.05105755  0.93149841    -0.11800
C1854       C  0.53397716  0.03275051  0.91989084    -0.02800
C1855       C  0.53983063  0.03623396  0.90010064     0.02700
C1856       C  0.64286749  0.08836255  0.89577824     0.09500
N1857       N  0.63188423  0.08764211  0.93669394     0.65900
H1858       H  0.56344872  0.05317032  0.94646276     0.18800
N1859       N  0.51019203  0.02262709  0.88689468     0.76300
H1860       H  0.57878619  0.05542579  0.87784716     0.10300
C1861       C  0.66915918  0.07715407  0.89861785     0.04000
C1862       C  0.70235329  0.09398889  0.88877631    -0.04700
C1863       C  0.70955081  0.12121151  0.87581926    -0.23100
C1864       C  0.68323264  0.13240712  0.87314160     0.13200
C1865       C  0.65066669  0.11638605  0.88332657    -0.12300
N1866       N  0.66200220  0.04777964  0.91071851     0.64900
H1867       H  0.72221656  0.08501021  0.89086729     0.12700
N1868       N  0.68783976  0.15805918  0.85918216     0.61500
H1869       H  0.63050205  0.12486894  0.88092163     0.08900
O1870       O  0.50283009  0.54889310  0.88000898    -0.39900
O1871       O  0.00127099  0.49675307  0.87740110    -0.39100
O1872       O  0.65577835  0.12043488  0.93409930    -0.39100
O1873       O  0.63331514  0.07239249  0.95138186    -0.36800
O1874       O  0.68975793  0.15041577  0.84214351    -0.37700
O1875       O  0.68364068  0.18506194  0.86346833    -0.33900
O1876       O  0.61784281  0.50803089  0.87924401    -0.35300
O1877       O  0.64835215  0.51508214  0.90507906    -0.39600
C1878       C  0.96895649  0.08416772  0.91365896    -0.13300
C1879       C  0.93747884  0.06390590  0.90271740     0.17100
C1880       C  0.92419231  0.02626950  0.89976010     0.03400
C1881       C  0.94180772  0.00944296  0.90829279    -0.11800
C1882       C  0.97311897  0.02905312  0.91997162    -0.02800
C1883       C  0.98720791  0.06774087  0.92196536     0.02700
C1884       C  0.92042574  0.08299190  0.89333918     0.09500
N1885       N  0.89457191  0.00522154  0.88691933     0.65900
H1886       H  0.93047783  0.48213390  0.90446419     0.18800
N1887       N  0.52185436  0.09157439  0.93071174     0.76300
H1888       H  0.98015834  0.11343903  0.91537363     0.10300
C1889       C  0.88352327  0.07356995  0.89632284     0.04000
C1890       C  0.86765873  0.08973108  0.88560736    -0.04700
C1891       C  0.88814476  0.11604660  0.87232476    -0.23100
C1892       C  0.92526501  0.12587321  0.86973094     0.13200
C1893       C  0.94093706  0.10932078  0.88016602    -0.12300
N1894       N  0.86215060  0.04833863  0.91042425     0.64900
H1895       H  0.83932392  0.08228926  0.88800505     0.12700
N1896       N  0.94662407  0.15027720  0.85547163     0.61500
H1897       H  0.96907089  0.11623001  0.87752388     0.08900
O1898       O  0.52415511  0.09667934  0.94823528    -0.39900
O1899       O  0.54796460  0.11359411  0.92073470    -0.39100
O1900       O  0.89399179  0.51191528  0.87136566    -0.39100
O1901       O  0.86886747  0.97439037  0.89146641    -0.36800
O1902       O  0.96758509  0.18357569  0.85963559    -0.37700
O1903       O  0.95064081  0.13726251  0.84008633    -0.33900
O1904       O  0.87476821  0.05231883  0.92683354    -0.35300
O1905       O  0.82923299  0.02463463  0.90710634    -0.39600
C1906       C  0.72873642  0.26765411  0.79467070    -0.13300
C1907       C  0.72568992  0.26404764  0.77517856     0.17100
C1908       C  0.74252989  0.24684720  0.76538162     0.03400
C1909       C  0.76089285  0.23223675  0.77527683    -0.11800
C1910       C  0.76320503  0.23485477  0.79497236    -0.02800
C1911       C  0.74738519  0.25363776  0.80460083     0.02700
C1912       C  0.70633170  0.28021024  0.76541037     0.09500
N1913       N  0.74062059  0.24350025  0.74541279     0.65900
H1914       H  0.77305545  0.21849909  0.76747249     0.18800
N1915       N  0.75042536  0.25949558  0.82444400     0.76300
H1916       H  0.71688017  0.28195211  0.80226247     0.10300
C1917       C  0.66920510  0.26836891  0.76879020     0.04000
C1918       C  0.65235602  0.28625679  0.76071527    -0.04700
C1919       C  0.67146801  0.31607627  0.74875522    -0.23100
C1920       C  0.70997180  0.32936888  0.74670807     0.13200
C1921       C  0.72639213  0.31080307  0.75456779    -0.12300
N1922       N  0.64830339  0.23843122  0.78072358     0.64900
H1923       H  0.62428813  0.27690754  0.76456138     0.12700
N1924       N  0.73337541  0.36240275  0.73727612     0.61500
H1925       H  0.75554008  0.32132640  0.75280009     0.08900
O1926       O  0.72409251  0.23872038  0.83465141    -0.39900
O1927       O  0.77530351  0.28947234  0.83121163    -0.39100
O1928       O  0.76871957  0.26262787  0.73582838    -0.39100
O1929       O  0.71168404  0.21947445  0.73740954    -0.36800
O1930       O  0.74445121  0.36042116  0.72104947    -0.37700
O1931       O  0.75188074  0.39122212  0.74704106    -0.33900
O1932       O  0.63583030  0.24364447  0.79592301    -0.35300
O1933       O  0.63933448  0.20631993  0.77524878    -0.39600
C1934       C  0.50279175  0.24691792  0.78298207    -0.13300
C1935       C  0.50100114  0.25920088  0.76529454     0.17100
C1936       C  0.96733653  0.25380675  0.75840130     0.03400
C1937       C  0.93610017  0.23731918  0.76969801    -0.11800
C1938       C  0.93812599  0.22635779  0.78790747    -0.02800
C1939       C  0.97190362  0.23060401  0.79427624     0.02700
C1940       C  0.53562177  0.27982486  0.75517021     0.09500
N1941       N  0.96468949  0.26540435  0.74016166     0.65900
H1942       H  0.91048758  0.23402940  0.76439361     0.18800
N1943       N  0.97533895  0.21770286  0.81199417     0.76300
H1944       H  0.52867553  0.25070640  0.78821503     0.10300
C1945       C  0.55780056  0.31730127  0.75887548     0.04000
C1946       C  0.59401070  0.33515587  0.75278530    -0.04700
C1947       C  0.60993616  0.31598313  0.74371850    -0.23100
C1948       C  0.58536138  0.27893752  0.73789559     0.13200
C1949       C  0.54903218  0.26122782  0.74410985    -0.12300
N1950       N  0.54448925  0.33715555  0.76987644     0.64900
H1951       H  0.60949447  0.36418214  0.75572874     0.12700
N1952       N  0.59657220  0.25858393  0.72582214     0.61500
H1953       H  0.53152340  0.23242809  0.74076894     0.08900
O1954       O  0.48521470  0.23934859  0.82617263    -0.39900
O1955       O  0.97772399  0.18901044  0.81245663    -0.39100
O1956       O  0.95232074  0.24241978  0.72668729    -0.39100
O1957       O  0.47019636  0.29726628  0.73797970    -0.36800
O1958       O  0.58958840  0.25667203  0.70854771    -0.37700
O1959       O  0.60191463  0.23423761  0.73262781    -0.33900
O1960       O  0.54671484  0.33789756  0.78750117    -0.35300
O1961       O  0.53418596  0.35704611  0.76199005    -0.39600
C1962       C  0.76105970  0.01294613  0.76645203    -0.13300
C1963       C  0.72578355  0.48572961  0.77246435     0.17100
C1964       C  0.70910034  0.99218271  0.78736300     0.03400
C1965       C  0.72716459  0.02582641  0.79719329    -0.11800
C1966       C  0.76139266  0.05366812  0.79148133    -0.02800
C1967       C  0.77806254  0.04731701  0.77569560     0.02700
C1968       C  0.70812581  0.44827681  0.76358168     0.09500
N1969       N  0.66899859  0.47176635  0.78970684     0.65900
H1970       H  0.71387207  0.03064367  0.80913806     0.18800
N1971       N  0.81314370  0.07481114  0.76951681     0.76300
H1972       H  0.77540853  0.00790483  0.75511560     0.10300
C1973       C  0.70905448  0.44198310  0.74416280     0.04000
C1974       C  0.69202434  0.40608950  0.73666267    -0.04700
C1975       C  0.67250137  0.37530748  0.74798032    -0.23100
C1976       C  0.67441708  0.38230525  0.76780466     0.13200
C1977       C  0.69172877  0.41812417  0.77512468    -0.12300
N1978       N  0.72682338  0.47174933  0.73175833     0.64900
H1979       H  0.69456813  0.40286363  0.72178372     0.12700
N1980       N  0.66013454  0.35358069  0.78099022     0.61500
H1981       H  0.69276564  0.42236321  0.79019199     0.08900
O1982       O  0.81530551  0.09862559  0.75844801    -0.39900
O1983       O  0.84119433  0.07209873  0.77283706    -0.39100
O1984       O  0.65809002  0.46345679  0.80628718    -0.39100
O1985       O  0.64585842  0.46179495  0.77654282    -0.36800
O1986       O  0.68234978  0.34679498  0.78942772    -0.37700
O1987       O  0.62958169  0.34441055  0.78846283    -0.33900
O1988       O  0.75334063  0.47494987  0.72195650    -0.35300
O1989       O  0.70823160  0.99246712  0.73118212    -0.39600
O1990       O  0.89178204  0.74464947  0.85727748    -0.77400
C1991       C  0.86921445  0.63224389  0.86167415     0.83700
O1992       O  0.87542761  0.69881326  0.79326374    -0.78500
O1993       O  0.77905826  0.58649851  0.82134559    -0.80000
O1994       O  0.75953469  0.67148694  0.86114676    -0.79800
O1995       O  0.84113216  0.74926210  0.85819258    -0.78400
Zn1996     Zn  0.87804207  0.69897665  0.84116979     1.55700
O1997       O  0.75671809  0.61737670  0.85992153    -0.79800
Cd1998     Cd  0.80326486  0.70289707  0.84370795     1.59700
Cd1999     Cd  0.82342935  0.67287496  0.80499673     1.59600
O2000       O  0.78286654  0.71970780  0.82238563    -0.79800
O2001       O  0.82693325  0.67522129  0.83319507    -1.90300
Cd2002     Cd  0.80010655  0.62481012  0.84310094     1.59900
O2003       O  0.79507039  0.69901240  0.79585839    -0.79800
O2004       O  0.83484173  0.61381939  0.85858239    -0.78400
C2005       C  0.90707884  0.71319095  0.80089981     0.84100
C2006       C  0.87476252  0.76155666  0.86231771     0.83800
O2007       O  0.88859872  0.66447581  0.85567390    -0.77400
C2008       C  0.74432594  0.63811341  0.86571403     0.84600
O2009       O  0.91089684  0.71442601  0.81862948    -0.77500
C2010       C  0.78136798  0.71636017  0.80460484     0.84700
C2011       C  0.78080550  0.58815113  0.80355852     0.85000
O2012       O  0.79709654  0.61849599  0.79520098    -0.79900
C2013       C  0.65362830  0.83509860  0.73832675    -0.01400
C2014       C  0.49362030  0.51100802  0.92759822    -0.01400
O2015       O  0.99464204  0.91828663  0.47466274    -0.77400
C2016       C  0.58415124  0.52545574  0.46985723     0.83700
O2017       O  0.53188767  0.96718757  0.53871043    -0.78500
O2018       O  0.54381405  0.57593687  0.51063503    -0.80000
O2019       O  0.93570342  0.49332198  0.47575871    -0.79800
O2020       O  0.94247845  0.91955722  0.47289302    -0.78400
Zn2021     Zn  0.52798937  0.96266967  0.49084970     1.55700
O2022       O  0.98898311  0.54453243  0.47327484    -0.79800
Cd2023     Cd  0.95123525  0.96188131  0.49097726     1.59700
Cd2024     Cd  0.50409326  0.99245580  0.52812442     1.59600
O2025       O  0.91645307  0.93886937  0.51311705    -0.79800
O2026       O  0.50300502  0.98850211  0.49996599    -1.90300
Cd2027     Cd  0.52494075  0.53643509  0.48943927     1.59900
O2028       O  0.95109009  0.96407712  0.53870097    -0.79800
O2029       O  0.56885155  0.54470908  0.47307743    -0.78400
C2030       C  0.54519915  0.94897827  0.53053840     0.84100
C2031       C  0.96207269  0.90521638  0.46839500     0.83800
O2032       O  0.57162195  0.49383800  0.47669619    -0.77400
C2033       C  0.95484444  0.52551367  0.46967584     0.84600
O2034       O  0.54506096  0.94568835  0.51274210    -0.77500
C2035       C  0.92023391  0.94301302  0.53083535     0.84700
C2036       C  0.54202729  0.57584033  0.52846155     0.85000
O2037       O  0.52624577  0.54594489  0.53722501    -0.79900
C2038       C  0.83199648  0.65249657  0.40619591    -0.01400
C2039       C  0.67261835  0.82899364  0.59411458    -0.01400
O2040       O  0.74724126  0.89539354  0.14235061    -0.77400
C2041       C  0.63632705  0.87506401  0.13575408     0.83700
O2042       O  0.70197752  0.88994932  0.20542491    -0.78500
O2043       O  0.59156490  0.79271343  0.17835844    -0.80000
O2044       O  0.67154898  0.76106784  0.14448338    -0.79800
O2045       O  0.74748342  0.84263189  0.13991152    -0.78400
Zn2046     Zn  0.70306898  0.88540304  0.15778322     1.55700
O2047       O  0.61878744  0.76117337  0.14198825    -0.79800
Cd2048     Cd  0.70624074  0.81030982  0.15808867     1.59700
Cd2049     Cd  0.67841915  0.83645872  0.19502433     1.59600
O2050       O  0.72998884  0.79930223  0.18054603    -0.79800
O2051       O  0.67922580  0.83583855  0.16686388    -1.90300
Cd2052     Cd  0.62821274  0.80861875  0.15663366     1.59900
O2053       O  0.70747216  0.81280857  0.20601470    -0.79800
O2054       O  0.61679622  0.84168395  0.14005169    -0.78400
C2055       C  0.71684435  0.92045565  0.19725619     0.84100
C2056       C  0.76081867  0.87612077  0.13590721     0.83800
O2057       O  0.66931362  0.89442099  0.14139051    -0.77400
C2058       C  0.63826110  0.74588479  0.13904480     0.84600
O2059       O  0.71901971  0.92182457  0.17945490    -0.77500
C2060       C  0.72701981  0.80065737  0.19829876     0.84700
C2061       C  0.59416369  0.79393865  0.19615010     0.85000
O2062       O  0.62504448  0.80870649  0.20459293    -0.79900
C2063       C  0.50981850  0.49501914  0.07184126    -0.01400
C2064       C  0.84847749  0.67369037  0.26199257    -0.01400
C2065       C  0.91002317  0.97299256  0.08543954    -0.13300
C2066       C  0.89786113  0.94243322  0.09647381     0.17100
C2067       C  0.92214948  0.93007103  0.10084176     0.03400
C2068       C  0.95791945  0.94849157  0.09429395    -0.11800
C2069       C  0.97054819  0.97716534  0.08131599    -0.02800
C2070       C  0.94578702  0.99099054  0.07828844     0.02700
C2071       C  0.86160509  0.92644963  0.10546629     0.09500
N2072       N  0.91156375  0.90015236  0.11299189     0.65900
H2073       H  0.97649030  0.94114730  0.10125314     0.18800
N2074       N  0.95866952  0.52790072  0.06948737     0.76300
H2075       H  0.89182507  0.98425441  0.08305961     0.10300
C2076       C  0.85413478  0.94642069  0.11927575     0.04000
C2077       C  0.82022356  0.93011386  0.12825056    -0.04700
C2078       C  0.79390426  0.89363691  0.12416149    -0.23100
C2079       C  0.80111859  0.87395475  0.11000794     0.13200
C2080       C  0.83488920  0.89046487  0.10083441    -0.12300
N2081       N  0.88169478  0.98227280  0.12526319     0.64900
H2082       H  0.81534157  0.94538770  0.13929224     0.12700
N2083       N  0.77407695  0.83763322  0.10446665     0.61500
H2084       H  0.84038586  0.87513141  0.09006913     0.08900
O2085       O  0.97872410  0.55625398  0.07926870    -0.39900
O2086       O  0.94123812  0.53049472  0.05581914    -0.39100
O2087       O  0.90397619  0.86915362  0.10622571    -0.39100
O2088       O  0.91378303  0.90553969  0.13051049    -0.36800
O2089       O  0.74633925  0.83244395  0.09520303    -0.37700
O2090       O  0.77997145  0.81136288  0.10684344    -0.33900
O2091       O  0.86877362  0.51150107  0.11847395    -0.35300
O2092       O  0.90631951  0.49464237  0.12953225    -0.39600
C2093       C  0.54808816  0.57226327  0.11125791    -0.13300
C2094       C  0.56989512  0.60349243  0.10118712     0.17100
C2095       C  0.57673355  0.59961540  0.08234131     0.03400
C2096       C  0.55963829  0.56504848  0.07352696    -0.11800
C2097       C  0.53356177  0.53310046  0.08267080    -0.02800
C2098       C  0.53134878  0.53734307  0.10255099     0.02700
C2099       C  0.58722050  0.63981143  0.11079153     0.09500
N2100       N  0.60126955  0.63068522  0.07192476     0.65900
H2101       H  0.56754947  0.56409164  0.05926378     0.18800
N2102       N  0.51455241  0.50681067  0.11451305     0.76300
H2103       H  0.54498310  0.57493672  0.12619820     0.10300
C2104       C  0.57014368  0.66137890  0.11110529     0.04000
C2105       C  0.58734045  0.69587242  0.12012933    -0.04700
C2106       C  0.62151402  0.70941045  0.12916175    -0.23100
C2107       C  0.63857293  0.68745559  0.12870099     0.13200
C2108       C  0.62141732  0.65315871  0.11945937    -0.11100
N2109       N  0.53514882  0.64838116  0.10242269     0.64900
H2110       H  0.57360369  0.71195266  0.12017861     0.12700
N2111       N  0.67276204  0.69893056  0.13796875     0.61500
H2112       H  0.63468588  0.63661949  0.11922765     0.08900
O2113       O  0.52993663  0.48790442  0.11688047    -0.39900
O2114       O  0.49085203  0.50475462  0.12614791    -0.39100
O2115       O  0.63429761  0.63858657  0.07021115    -0.39100
O2116       O  0.58887313  0.64694175  0.06231549    -0.36800
O2117       O  0.67323609  0.69304886  0.15515726    -0.37700
O2118       O  0.70152344  0.70944526  0.12846798    -0.33900
O2119       O  0.50660824  0.62498049  0.11043182    -0.35300
O2120       O  0.53237879  0.66310298  0.08784230    -0.39600
C2121       C  0.57561978  0.91243411  0.11996703    -0.13300
C2122       C  0.58685142  0.92139460  0.10137526     0.17100
C2123       C  0.61503237  0.91556975  0.09417945     0.03400
C2124       C  0.63181916  0.90150040  0.10577294    -0.11800
C2125       C  0.62001978  0.89198721  0.12422692    -0.02800
C2126       C  0.59188275  0.89777157  0.13136732     0.02700
C2127       C  0.56881981  0.93723720  0.09001589     0.09500
N2128       N  0.62538142  0.92187177  0.07492190     0.65900
H2129       H  0.65311085  0.89659908  0.10014486     0.18800
N2130       N  0.58050442  0.89006037  0.15039480     0.76300
H2131       H  0.55436018  0.91725930  0.12571116     0.10300
C2132       C  0.53122964  0.91745619  0.08633162     0.04000
C2133       C  0.51357252  0.93465796  0.07839932    -0.04700
C2134       C  0.53178307  0.97269263  0.07503990    -0.23100
C2135       C  0.57090439  0.98950158  0.07473608     0.13200
C2136       C  0.58878090  0.97264492  0.08330282    -0.12300
N2137       N  0.51027671  0.87973426  0.09087792     0.64900
H2138       H  0.98518270  0.91765084  0.07589175     0.12700
N2139       N  0.59239112  0.52109341  0.06450347     0.61500
H2140       H  0.61818451  0.98678766  0.08433183     0.08900
O2141       O  0.54916968  0.86398223  0.15405162    -0.39900
O2142       O  0.59997432  0.91184631  0.16337083    -0.39100
O2143       O  0.65875444  0.93971480  0.07058378    -0.39100
O2144       O  0.60151564  0.90621258  0.06219072    -0.36800
O2145       O  0.58654677  0.52051385  0.04715316    -0.37700
O2146       O  0.62251173  0.54563319  0.07129228    -0.33900
O2147       O  0.98444453  0.86937168  0.10240105    -0.35300
O2148       O  0.51549997  0.85625482  0.08209864    -0.39600
C2149       C  0.81383906  0.72025268  0.22719372    -0.13300
C2150       C  0.80284993  0.74015931  0.23895903     0.17100
C2151       C  0.80623789  0.73851029  0.25848401     0.03400
C2152       C  0.81952410  0.71644845  0.26572251    -0.11800
C2153       C  0.83130313  0.69650603  0.25396434    -0.02800
C2154       C  0.82926685  0.70018577  0.23419292     0.02700
C2155       C  0.78635275  0.76076427  0.23030328     0.09500
N2156       N  0.79819329  0.76056802  0.27117407     0.65900
H2157       H  0.82292280  0.71751767  0.28070909     0.18800
N2158       N  0.84400576  0.68505427  0.22076297     0.76300
H2159       H  0.81092256  0.72056500  0.21215785     0.10300
C2160       C  0.80177046  0.78165275  0.21416889     0.04000
C2161       C  0.78177864  0.79406961  0.20401628    -0.04700
C2162       C  0.74739218  0.78800726  0.21005946    -0.23100
C2163       C  0.73322434  0.76963794  0.22692645     0.13200
C2164       C  0.75239682  0.75569967  0.23667790    -0.12300
N2165       N  0.83777590  0.79065040  0.20796872     0.64900
H2166       H  0.79358422  0.80925444  0.19144661     0.12700
N2167       N  0.69828860  0.76271224  0.23366444     0.61500
H2168       H  0.73975540  0.73932519  0.24879561     0.08900
O2169       O  0.82256608  0.65569217  0.21207630    -0.39900
O2170       O  0.87418886  0.70636645  0.21328029    -0.39100
O2171       O  0.77881433  0.74663360  0.28541738    -0.39100
O2172       O  0.81356869  0.79467798  0.26924979    -0.36800
O2173       O  0.66946999  0.73639743  0.22674544    -0.37700
O2174       O  0.69637375  0.77962674  0.24811308    -0.33900
O2175       O  0.84352227  0.78716453  0.19086361    -0.35300
O2176       O  0.86440947  0.80461079  0.21933894    -0.39600
C2177       C  0.74661587  0.99040890  0.23805967    -0.13300
C2178       C  0.76836785  0.52506227  0.22841172     0.17100
C2179       C  0.77596082  0.52341925  0.20930760     0.03400
C2180       C  0.75017798  0.98865905  0.19904649    -0.11800
C2181       C  0.73232252  0.95541975  0.20846755    -0.02800
C2182       C  0.73038306  0.95667447  0.22827576     0.02700
C2183       C  0.78513556  0.56041201  0.23898258     0.09500
N2184       N  0.80165944  0.55555736  0.19991301     0.65900
H2185       H  0.75239425  0.98872071  0.18393171     0.18800
N2186       N  0.71202742  0.92411944  0.23874069     0.76300
H2187       H  0.74504443  0.99102906  0.25320242     0.10300
C2188       C  0.77174899  0.58482926  0.23736816     0.04000
C2189       C  0.79044825  0.61952754  0.24604500    -0.04700
C2190       C  0.82442894  0.63214352  0.25552448    -0.23100
C2191       C  0.83395354  0.60462130  0.25949227     0.13200
C2192       C  0.81509583  0.56990902  0.25068764    -0.12300
N2193       N  0.73915788  0.57480250  0.22684445     0.64900
H2194       H  0.77805030  0.63656985  0.24475432     0.12700
N2195       N  0.86291911  0.61101091  0.27208657     0.61500
H2196       H  0.82418938  0.55023342  0.25289789     0.08900
O2197       O  0.67911085  0.91225747  0.24341915    -0.39900
O2198       O  0.73024201  0.91097532  0.24593675    -0.39100
O2199       O  0.83540422  0.56973921  0.20355790    -0.39100
O2200       O  0.79132786  0.56667364  0.18624520    -0.36800
O2201       O  0.85578089  0.60668955  0.28931184    -0.37700
O2202       O  0.88926383  0.60736854  0.26592808    -0.33900
O2203       O  0.70850574  0.55925532  0.23485278    -0.35300
O2204       O  0.74143716  0.58671112  0.21059968    -0.39600
C2205       C  0.02350772  0.74604619  0.23399653    -0.13300
C2206       C  0.99297693  0.74621873  0.22633058     0.17100
C2207       C  0.49606760  0.76301528  0.20917607     0.03400
C2208       C  0.52927932  0.77843033  0.19961806    -0.11800
C2209       C  0.55998580  0.77804866  0.20709167    -0.02800
C2210       C  0.55705294  0.76207672  0.22460388     0.02700
C2211       C  0.95759797  0.72756566  0.23600387     0.09500
N2212       N  0.46548568  0.76412100  0.20121848     0.65900
H2213       H  0.53109258  0.79097421  0.18632098     0.18800
N2214       N  0.58722958  0.76025555  0.23257166     0.76300
H2215       H  0.02112018  0.73300571  0.24719852     0.10300
C2216       C  0.93425072  0.69002719  0.23328006     0.04000
C2217       C  0.90005101  0.67306821  0.24186648    -0.04700
C2218       C  0.88804431  0.69259834  0.25377820    -0.23100
C2219       C  0.91209367  0.73139808  0.25579286     0.13200
C2220       C  0.94636437  0.74789383  0.24711889    -0.12300
N2221       N  0.94402106  0.66912471  0.22079054     0.64900
H2222       H  0.88248625  0.64485744  0.23785735     0.12700
N2223       N  0.90116705  0.75529958  0.26491508     0.61500
H2224       H  0.96405664  0.77720661  0.24866491     0.08900
O2225       O  0.59195436  0.73351737  0.22844705    -0.39900
O2226       O  0.60566012  0.78220872  0.24572109    -0.39100
O2227       O  0.46049171  0.79078248  0.20509455    -0.39100
O2228       O  0.94702767  0.74162458  0.18821248    -0.36800
O2229       O  0.90003665  0.75713107  0.28252727    -0.37700
O2230       O  0.89989586  0.77968706  0.25557781    -0.33900
O2231       O  0.95572831  0.64916828  0.22726086    -0.35300
O2232       O  0.93638534  0.66685213  0.20358348    -0.39600
C2233       C  0.81827764  0.67396660  0.35485616    -0.13300
C2234       C  0.83519783  0.65809439  0.34425295     0.17100
C2235       C  0.85115106  0.64033613  0.35363175     0.03400
C2236       C  0.85027192  0.63911672  0.37322394    -0.11800
C2237       C  0.83192547  0.65355994  0.38424127    -0.02800
C2238       C  0.81653041  0.67217936  0.37444193     0.02700
C2239       C  0.83900199  0.66323973  0.32361226     0.09500
N2240       N  0.86821849  0.62305370  0.34340595     0.65900
H2241       H  0.86493616  0.62713620  0.37959636     0.18800
N2242       N  0.80096411  0.69158597  0.38404635     0.76300
H2243       H  0.80726359  0.68906713  0.34790092     0.10300
C2244       C  0.80857427  0.65283451  0.31185530     0.04000
C2245       C  0.81334049  0.65734630  0.29251537    -0.04700
C2246       C  0.84825617  0.67311331  0.28397559    -0.23100
C2247       C  0.87926058  0.68410706  0.29628327     0.13200
C2248       C  0.87389556  0.67950693  0.31568038    -0.12300
N2249       N  0.77236432  0.63678696  0.31927610     0.64900
H2250       H  0.78904343  0.64805229  0.28389766     0.12700
N2251       N  0.91626300  0.69829704  0.28997747     0.61500
H2252       H  0.89754661  0.68809926  0.32471858     0.08900
O2253       O  0.76659731  0.67690711  0.38521498    -0.39900
O2254       O  0.81975694  0.72594425  0.38553681    -0.39100
O2255       O  0.90068810  0.63103843  0.34723715    -0.39100
O2256       O  0.84963289  0.59711388  0.33192824    -0.36800
O2257       O  0.92585662  0.67683286  0.28252476    -0.37700
O2258       O  0.94091180  0.72822784  0.29696686    -0.33900
O2259       O  0.75410101  0.65315488  0.31805528    -0.35300
O2260       O  0.75722979  0.60467720  0.32519928    -0.39600
C2261       C  0.65973135  0.58358275  0.43573692    -0.13300
C2262       C  0.68341646  0.56927546  0.43753460     0.17100
C2263       C  0.67353853  0.53941794  0.44920356     0.03400
C2264       C  0.64097464  0.52536493  0.45941458    -0.11800
C2265       C  0.61760959  0.54032502  0.45813518    -0.02800
C2266       C  0.62707517  0.56947191  0.44585740     0.02700
C2267       C  0.72036171  0.58882889  0.42917026     0.09500
N2268       N  0.69640534  0.52317884  0.45079538     0.65900
H2269       H  0.63415107  0.50278490  0.46853415     0.18800
N2270       N  0.60399730  0.58519967  0.44349031     0.76300
H2271       H  0.66727986  0.60674619  0.42692349     0.10300
C2272       C  0.72555382  0.59288410  0.40979117     0.04000
C2273       C  0.76100943  0.61285655  0.40261313    -0.04700
C2274       C  0.79237061  0.63062855  0.41442041    -0.23100
C2275       C  0.78630107  0.62513190  0.43414581     0.13200
C2276       C  0.75079865  0.60487679  0.44107746    -0.12300
N2277       N  0.69508748  0.57565948  0.39714348     0.64900
H2278       H  0.76339827  0.61292388  0.38757617     0.12700
N2279       N  0.81566386  0.63850164  0.44752044     0.61500
H2280       H  0.74697249  0.60170050  0.45607034     0.08900
O2281       O  0.58341291  0.57634163  0.42926750    -0.39900
O2282       O  0.60899829  0.61234895  0.45362467    -0.39100
O2283       O  0.70616508  0.51869683  0.46671951    -0.39100
O2284       O  0.70461206  0.51081568  0.43636512    -0.36800
O2285       O  0.82381917  0.66744396  0.45685175    -0.37700
O2286       O  0.82365204  0.61595186  0.45435488    -0.33900
O2287       O  0.68666832  0.59485221  0.38726255    -0.35300
O2288       O  0.67894018  0.54146630  0.39447396    -0.39600
C2289       C  0.89720444  0.82771515  0.43566807    -0.13300
C2290       C  0.90952601  0.80252725  0.43777870     0.17100
C2291       C  0.94136479  0.81266420  0.44852427     0.03400
C2292       C  0.95947256  0.84719927  0.45746108    -0.11800
C2293       C  0.94590434  0.87168363  0.45625789    -0.02800
C2294       C  0.91494929  0.86199472  0.44476692     0.02700
C2295       C  0.88887116  0.76581148  0.42864743     0.09500
N2296       N  0.95436236  0.78742936  0.45138150     0.65900
H2297       H  0.98301210  0.85397914  0.46627215     0.18800
N2298       N  0.90136912  0.88675007  0.44201148     0.76300
H2299       H  0.87353350  0.82065801  0.42690315     0.10300
C2300       C  0.85138981  0.74300416  0.43204838     0.04000
C2301       C  0.83304067  0.70794287  0.42385288    -0.04700
C2302       C  0.85150670  0.69365323  0.41282460    -0.23100
C2303       C  0.88821198  0.71897737  0.40752345     0.13200
C2304       C  0.90649971  0.75403946  0.41584995    -0.12300
N2305       N  0.83174287  0.75454752  0.44435949     0.64900
H2306       H  0.80412115  0.69196578  0.42663203     0.12700
N2307       N  0.90772405  0.70967027  0.39392717     0.61500
H2308       H  0.93478327  0.77232152  0.41222896     0.08900
O2309       O  0.86979644  0.87885316  0.44762889    -0.39900
O2310       O  0.91908778  0.91432325  0.43207818    -0.39100
O2311       O  0.98692569  0.79610494  0.44733467    -0.39100
O2312       O  0.93449885  0.75797154  0.45960280    -0.36800
O2313       O  0.90773723  0.71843769  0.37718154    -0.37700
O2314       O  0.93310509  0.70411298  0.39930957    -0.33900
O2315       O  0.80441137  0.75621724  0.43834188    -0.35300
O2316       O  0.83967384  0.75997533  0.46158353    -0.39600
C2317       C  0.93956817  0.58707305  0.43718927    -0.13300
C2318       C  0.90242710  0.57558345  0.44013062     0.17100
C2319       C  0.88206714  0.54609179  0.45195807     0.03400
C2320       C  0.89924294  0.52920717  0.46088412    -0.11800
C2321       C  0.93682939  0.54162059  0.45852365    -0.02800
C2322       C  0.95686886  0.57053604  0.44623921     0.02700
C2323       C  0.88567171  0.59517507  0.43099207     0.09500
N2324       N  0.84448541  0.53438265  0.45588081     0.65900
H2325       H  0.88338049  0.50729259  0.47033827     0.18800
N2326       N  0.49462285  0.58288853  0.44245627     0.76300
H2327       H  0.95527987  0.60908800  0.42775916     0.10300
C2328       C  0.89988732  0.63280399  0.43413365     0.04000
C2329       C  0.88310822  0.65062474  0.42597333    -0.04700
C2330       C  0.85233617  0.63237265  0.41378403    -0.23100
C2331       C  0.83821430  0.59387493  0.41079617     0.13200
C2332       C  0.85513135  0.57618055  0.41923506    -0.12300
N2333       N  0.93017852  0.65308960  0.44662426     0.64900
H2334       H  0.89355754  0.67859750  0.43057485     0.12700
N2335       N  0.80519498  0.57147617  0.40037929     0.61500
H2336       H  0.84387171  0.54706131  0.41676918     0.08900
O2337       O  0.51886925  0.61383891  0.44858243    -0.39900
O2338       O  0.50327353  0.56502723  0.43103502    -0.39100
O2339       O  0.81987625  0.50328757  0.45013901    -0.39100
O2340       O  0.83638413  0.55281512  0.46720917    -0.36800
O2341       O  0.80733693  0.56313828  0.38349905    -0.37700
O2342       O  0.77647033  0.55113299  0.40927463    -0.33900
O2343       O  0.96066539  0.67655146  0.44024406    -0.35300
O2344       O  0.92507844  0.65141624  0.46407545    -0.39600
C2345       C  0.82861925  0.86914260  0.54794253    -0.13300
C2346       C  0.81938866  0.88892867  0.56092364     0.17100
C2347       C  0.84538068  0.92570231  0.56530899     0.03400
C2348       C  0.87928906  0.94226383  0.55626452    -0.11800
C2349       C  0.88735497  0.92313196  0.54240606    -0.02800
C2350       C  0.86208232  0.88601573  0.53854233     0.02700
C2351       C  0.78254798  0.87113787  0.56966915     0.09500
N2352       N  0.83674619  0.94730435  0.57793561     0.65900
H2353       H  0.89840176  0.97088369  0.55920773     0.18800
N2354       N  0.87037035  0.86501758  0.52531874     0.76300
H2355       H  0.80958173  0.84054105  0.54493383     0.10300
C2356       C  0.75038708  0.85321759  0.55880353     0.04000
C2357       C  0.71636828  0.83917684  0.56746371    -0.04700
C2358       C  0.71257916  0.84260045  0.58707070    -0.23100
C2359       C  0.74550257  0.85671122  0.59817270     0.13200
C2360       C  0.77961740  0.87156580  0.58918035    -0.12300
N2361       N  0.75161361  0.85073247  0.53880733     0.64900
H2362       H  0.69240444  0.82755098  0.55843708     0.12700
N2363       N  0.74600182  0.85470024  0.61820505     0.61500
H2364       H  0.80438788  0.88280023  0.59759803     0.08900
O2365       O  0.85401284  0.85554338  0.50969782    -0.39900
O2366       O  0.89040804  0.85203666  0.53017432    -0.39100
O2367       O  0.85536974  0.96085883  0.59272879    -0.39100
O2368       O  0.81346923  0.95639366  0.57324435    -0.36800
O2369       O  0.73119687  0.82389466  0.62561428    -0.37700
O2370       O  0.76983308  0.88174055  0.62763722    -0.33900
O2371       O  0.73547687  0.81989418  0.53048081    -0.35300
O2372       O  0.76566726  0.87934468  0.52937618    -0.39600
C2373       C  0.57589723  0.64960112  0.56763144    -0.13300
C2374       C  0.59339312  0.68156166  0.55731395     0.17100
C2375       C  0.59423485  0.67864291  0.53760625     0.03400
C2376       C  0.57657139  0.64407434  0.52867555    -0.11800
C2377       C  0.55907423  0.61179234  0.53891512    -0.02800
C2378       C  0.55902255  0.61496933  0.55870191     0.02700
C2379       C  0.61090890  0.71770151  0.56735987     0.09500
N2380       N  0.61421065  0.71034256  0.52651184     0.65900
H2381       H  0.57765401  0.64259793  0.51354356     0.18800
N2382       N  0.54236545  0.58346714  0.57001900     0.76300
H2383       H  0.57537002  0.65157131  0.58277667     0.10300
C2384       C  0.60103607  0.74440911  0.56376798     0.04000
C2385       C  0.62110466  0.77943761  0.57207323    -0.04700
C2386       C  0.64988483  0.78877446  0.58526610    -0.23100
C2387       C  0.65943394  0.76096655  0.58842354     0.13200
C2388       C  0.63980101  0.72631247  0.57970711    -0.12300
N2389       N  0.57033374  0.73626862  0.55187417     0.64900
H2390       H  0.61370676  0.79914188  0.56756977     0.12700
N2391       N  0.68984622  0.76724625  0.59988257     0.61500
H2392       H  0.64811001  0.70612100  0.58218879     0.08900
O2393       O  0.51047667  0.57240747  0.57620473    -0.39900
O2394       O  0.56152007  0.57054331  0.57630251    -0.39100
O2395       O  0.64727595  0.73278089  0.53038830    -0.39100
O2396       O  0.60044963  0.71349883  0.51150153    -0.36800
O2397       O  0.72005122  0.77628906  0.59202030    -0.37700
O2398       O  0.68346154  0.75124912  0.61526658    -0.33900
O2399       O  0.54004460  0.70767751  0.55422899    -0.35300
O2400       O  0.57219574  0.75941599  0.54041993    -0.39600
C2401       C  0.65279383  0.89953177  0.56839808    -0.13300
C2402       C  0.61644087  0.88674065  0.57342427     0.17100
C2403       C  0.60027136  0.85904658  0.58645324     0.03400
C2404       C  0.62007229  0.84307354  0.59333756    -0.11800
C2405       C  0.65612064  0.85319553  0.58719196    -0.02800
C2406       C  0.67328423  0.88424619  0.57532108     0.02700
C2407       C  0.59542792  0.90087523  0.56351980     0.09500
N2408       N  0.56300169  0.84520369  0.59192833     0.65900
H2409       H  0.60604942  0.82049781  0.60267194     0.18800
N2410       N  0.71127355  0.90229605  0.57048174     0.76300
H2411       H  0.66554971  0.92200852  0.55888242     0.10300
C2412       C  0.58818423  0.92754909  0.57156778     0.04000
C2413       C  0.57108616  0.94239322  0.56080343    -0.04700
C2414       C  0.56129794  0.93121345  0.54194709    -0.23100
C2415       C  0.56788296  0.90361762  0.53420188     0.13200
C2416       C  0.58494960  0.88901945  0.54497602    -0.12300
N2417       N  0.59951637  0.94094881  0.59031851     0.64900
H2418       H  0.56643669  0.96348140  0.56709199     0.12700
N2419       N  0.55715242  0.88972066  0.51546432     0.61500
H2420       H  0.59038169  0.86837455  0.53875010     0.08900
O2421       O  0.73509685  0.91980636  0.58296700    -0.39900
O2422       O  0.72017953  0.90913043  0.55354037    -0.39100
O2423       O  0.53750897  0.82588175  0.58048423    -0.39100
O2424       O  0.55551409  0.84744659  0.60888268    -0.36800
O2425       O  0.58118604  0.89808800  0.50297553    -0.37700
O2426       O  0.52475320  0.86479098  0.51210720    -0.33900
O2427       O  0.63075645  0.96827137  0.59331618    -0.35300
O2428       O  0.57638152  0.92957667  0.60333938    -0.39600
C2429       C  0.97880633  0.52067201  0.98174849    -0.13300
C2430       C  0.50003527  0.50681320  0.98925315     0.17100
C2431       C  0.51655481  0.49273159  0.97689762     0.03400
C2432       C  0.51344762  0.99456614  0.95842100    -0.11800
C2433       C  0.49336283  0.51001967  0.94954193    -0.02800
C2434       C  0.97487648  0.52243841  0.96233740     0.02700
C2435       C  0.50213929  0.50440773  0.00999442     0.09500
N2436       N  0.53892976  0.47853858  0.98370694     0.65900
H2437       H  0.52748053  0.98404328  0.94962070     0.18800
N2438       N  0.95049798  0.53521715  0.95657242     0.76300
H2439       H  0.96388844  0.52924417  0.99113127     0.10300
C2440       C  0.50949821  0.53389432  0.02227593     0.04000
C2441       C  0.50962225  0.52974145  0.04164875    -0.04700
C2442       C  0.50499033  0.49737497  0.04991307    -0.23100
C2443       C  0.49358323  0.96680187  0.03758615     0.13200
C2444       C  0.49331567  0.97130766  0.01818462    -0.12300
N2445       N  0.51736282  0.56863033  0.01537688     0.64900
H2446       H  0.51341777  0.55300790  0.04996726     0.12700
N2447       N  0.47846313  0.93019013  0.04355189     0.61500
H2448       H  0.48484436  0.94768698  0.00887483     0.08900
O2449       O  0.95457745  0.56495415  0.96349165    -0.39900
O2450       O  0.91983088  0.51290138  0.94945595    -0.39100
O2451       O  0.53774657  0.95174546  0.97976829    -0.39100
O2452       O  0.56768294  0.49906321  0.99297177    -0.36800
O2453       O  0.94597108  0.91428110  0.04960502    -0.37700
O2454       O  0.49227913  0.91108575  0.03766116    -0.33900
O2455       O  0.49853055  0.58306838  0.02071181    -0.35300
O2456       O  0.54516197  0.58640653  0.00535024    -0.39600
C2457       C  0.64047987  0.84787882  0.68536916    -0.13300
C2458       C  0.65832018  0.83108975  0.67641394     0.17100
C2459       C  0.67303456  0.81401813  0.68723515     0.03400
C2460       C  0.66994469  0.81434719  0.70671824    -0.11800
C2461       C  0.65481769  0.83378660  0.71633898    -0.02800
C2462       C  0.63784099  0.84882625  0.70495590     0.02700
C2463       C  0.65979572  0.83002741  0.65568054     0.09500
N2464       N  0.69184724  0.79671208  0.67867348     0.65900
H2465       H  0.67963630  0.79871021  0.71404788     0.18800
N2466       N  0.61485535  0.86204127  0.71275351     0.76300
H2467       H  0.62751554  0.85951362  0.67701705     0.10300
C2468       C  0.64276790  0.79695764  0.64519192     0.04000
C2469       C  0.64727803  0.79724242  0.62573353    -0.04700
C2470       C  0.66907410  0.82985871  0.61599943    -0.23100
C2471       C  0.68344082  0.86332918  0.62690552     0.13200
C2472       C  0.67933636  0.86273780  0.64638427    -0.12300
N2473       N  0.61970910  0.76290489  0.65398791     0.64900
H2474       H  0.63191150  0.77133270  0.61841070     0.12700
N2475       N  0.70047067  0.89847063  0.61865986     0.61500
H2476       H  0.69140181  0.88835710  0.65436687     0.08900
O2477       O  0.58062695  0.84284154  0.71053583    -0.39900
O2478       O  0.62825160  0.89550578  0.71701168    -0.39100
O2479       O  0.71763306  0.81403357  0.66741555    -0.39100
O2480       O  0.68575716  0.76588335  0.68400848    -0.36800
O2481       O  0.68072279  0.91257532  0.61524540    -0.37700
O2482       O  0.73418282  0.91964752  0.62158445    -0.33900
O2483       O  0.59532152  0.76020972  0.66530678    -0.35300
O2484       O  0.62090499  0.73452573  0.64891582    -0.39600
C2485       C  0.90370209  0.85690809  0.88158408    -0.13300
C2486       C  0.92855293  0.86103690  0.89567171     0.17100
C2487       C  0.93630744  0.83253965  0.89867226     0.03400
C2488       C  0.91962864  0.80073952  0.88720647    -0.11800
C2489       C  0.89434291  0.79645683  0.87319619    -0.02800
C2490       C  0.88670439  0.82512092  0.87034631     0.02700
C2491       C  0.94699750  0.89626656  0.90631629     0.09500
N2492       N  0.95946817  0.83479332  0.91385170     0.65900
H2493       H  0.92522877  0.77869511  0.88978268     0.18800
N2494       N  0.86292056  0.82303771  0.85555964     0.76300
H2495       H  0.89810383  0.87897187  0.87901190     0.10300
C2496       C  0.98449418  0.92094454  0.90436022     0.04000
C2497       C  0.99951022  0.95590660  0.91273576    -0.04700
C2498       C  0.97750540  0.96867892  0.92187873    -0.23100
C2499       C  0.94092088  0.94119203  0.92605851     0.13200
C2500       C  0.92603082  0.90616763  0.91773544    -0.12300
N2501       N  0.50744508  0.91194388  0.89300745     0.64900
H2502       H  0.52872809  0.97329404  0.91123233     0.12700
N2503       N  0.91786847  0.94787182  0.93844218     0.61500
H2504       H  0.89751310  0.88646611  0.92009006     0.08900
O2505       O  0.87368902  0.82626533  0.83882894    -0.39900
O2506       O  0.83403235  0.82406633  0.85938956    -0.39100
O2507       O  0.95009976  0.83667118  0.93049380    -0.39100
O2508       O  0.98638609  0.82982041  0.91082625    -0.36800
O2509       O  0.88792943  0.94368078  0.93217516    -0.37700
O2510       O  0.92057683  0.94454575  0.95576549    -0.33900
O2511       O  0.49956794  0.90318121  0.87593583    -0.35300
O2512       O  0.03795402  0.91791159  0.89903068    -0.39600
C2513       C  0.57568819  0.55606031  0.89294150    -0.13300
C2514       C  0.60599751  0.57055287  0.90492572     0.17100
C2515       C  0.60056805  0.56916186  0.92433494     0.03400
C2516       C  0.56490952  0.55196078  0.93148642    -0.11800
C2517       C  0.53355640  0.53406324  0.91963196    -0.02800
C2518       C  0.53994800  0.53856157  0.89989472     0.02700
C2519       C  0.64307879  0.58834480  0.89671679     0.09500
N2520       N  0.63110230  0.58457262  0.93699684     0.65900
H2521       H  0.56251912  0.55318239  0.94648435     0.18800
N2522       N  0.51062064  0.52598101  0.88655890     0.76300
H2523       H  0.57982126  0.55841181  0.87793841     0.10300
C2524       C  0.65848506  0.56739506  0.88977644     0.04000
C2525       C  0.69198010  0.58429836  0.88039087    -0.04700
C2526       C  0.71065295  0.62221424  0.87748579    -0.23100
C2527       C  0.69545856  0.64331860  0.88506027     0.13200
C2528       C  0.66197050  0.62622836  0.89456730    -0.12300
N2529       N  0.63986895  0.52870099  0.89180132     0.64900
H2530       H  0.70278199  0.56728746  0.87488055     0.12700
N2531       N  0.71311720  0.68194943  0.88293300     0.61500
H2532       H  0.65017117  0.64250236  0.89989094     0.08900
O2533       O  0.50289740  0.04513038  0.87939977    -0.39900
O2534       O  0.99994256  0.99224330  0.87864432    -0.39100
O2535       O  0.63569187  0.61008603  0.94830627    -0.39100
O2536       O  0.65066181  0.56964277  0.93852522    -0.36800
O2537       O  0.70249689  0.69496046  0.87026118    -0.37700
O2538       O  0.73512306  0.70300765  0.89539394    -0.33900
O2539       O  0.63306802  0.01740042  0.90866506    -0.35300
O2540       O  0.68644450  0.05072769  0.92196547    -0.39600
C2541       C  0.96811826  0.58502875  0.91411163    -0.13300
C2542       C  0.93616542  0.56473129  0.90356678     0.17100
C2543       C  0.92244938  0.52707544  0.90071722     0.03400
C2544       C  0.94065461  0.51027756  0.90857171    -0.11800
C2545       C  0.97248773  0.52985923  0.91990095    -0.02800
C2546       C  0.98657696  0.56854401  0.92210132     0.02700
C2547       C  0.91952398  0.58384308  0.89402174     0.09500
N2548       N  0.89155279  0.50592078  0.88866786     0.65900
H2549       H  0.93200035  0.98132095  0.90426222     0.18800
N2550       N  0.52135117  0.59235302  0.93067442     0.76300
H2551       H  0.97951663  0.61434389  0.91572726     0.10300
C2552       C  0.88406344  0.57748007  0.89837915     0.04000
C2553       C  0.86785524  0.59298880  0.88747168    -0.04700
C2554       C  0.88689366  0.61570582  0.87260412    -0.23100
C2555       C  0.92265805  0.62251269  0.86857194     0.13200
C2556       C  0.93863437  0.60668074  0.87929684    -0.12300
N2557       N  0.86482696  0.55642011  0.91417643     0.64900
H2558       H  0.84065470  0.58809945  0.89096376     0.12700
N2559       N  0.94197838  0.64305334  0.85273130     0.61500
H2560       H  0.96561272  0.61108057  0.87564886     0.08900
O2561       O  0.52414601  0.59668834  0.94823394    -0.39900
O2562       O  0.54707886  0.61492115  0.92069234    -0.39100
O2563       O  0.89655590  0.01508395  0.87023035    -0.39100
O2564       O  0.86392234  0.47804339  0.89476546    -0.36800
O2565       O  0.97152843  0.67273712  0.85509546    -0.37700
O2566       O  0.93313026  0.62840105  0.83656822    -0.33900
O2567       O  0.87890365  0.56616954  0.93032750    -0.35300
O2568       O  0.83197270  0.53132723  0.91241858    -0.39600
C2569       C  0.72687530  0.76401442  0.79266090    -0.13300
C2570       C  0.72483207  0.76031862  0.77313350     0.17100
C2571       C  0.74251421  0.74345077  0.76383856     0.03400
C2572       C  0.76103921  0.72961441  0.77422760    -0.11800
C2573       C  0.76279019  0.73276904  0.79393393    -0.02800
C2574       C  0.74590510  0.75100145  0.80308195     0.02700
C2575       C  0.70591405  0.77644852  0.76287549     0.09500
N2576       N  0.74129062  0.73962985  0.74388527     0.65900
H2577       H  0.77386165  0.71612485  0.76678887     0.18800
N2578       N  0.74859263  0.75765400  0.82288980     0.76300
H2579       H  0.71430449  0.77801875  0.79987532     0.10300
C2580       C  0.66856138  0.76427060  0.76566481     0.04000
C2581       C  0.65241443  0.78335727  0.75816384    -0.04700
C2582       C  0.67226567  0.81429561  0.74697029    -0.23100
C2583       C  0.71070306  0.82706044  0.74495871     0.13200
C2584       C  0.72659029  0.80775373  0.75259001    -0.12300
N2585       N  0.64665733  0.73255051  0.77633132     0.64900
H2586       H  0.62423934  0.77381150  0.76179308     0.12700
N2587       N  0.73459205  0.86041809  0.73589224     0.61500
H2588       H  0.75580130  0.81827636  0.75113956     0.08900
O2589       O  0.72052198  0.74100298  0.83288583    -0.39900
O2590       O  0.77676521  0.78483009  0.82976848    -0.39100
O2591       O  0.76970290  0.75861566  0.73448182    -0.39100
O2592       O  0.71291189  0.71484962  0.73580209    -0.36800
O2593       O  0.74557754  0.85897981  0.71956980    -0.37700
O2594       O  0.75325970  0.88880953  0.74592717    -0.33900
O2595       O  0.63114313  0.73506533  0.79104939    -0.35300
O2596       O  0.64007911  0.70151152  0.77012659    -0.39600
C2597       C  0.50552121  0.75157366  0.78466279    -0.13300
C2598       C  0.50384669  0.76314770  0.76675659     0.17100
C2599       C  0.97010067  0.75708798  0.75961819     0.03400
C2600       C  0.93859926  0.74020016  0.77073609    -0.11800
C2601       C  0.94033685  0.72924841  0.78898656    -0.02800
C2602       C  0.97436244  0.73475234  0.79574659     0.02700
C2603       C  0.53848006  0.78314379  0.75645434     0.09500
N2604       N  0.96764467  0.76861571  0.74133462     0.65900
H2605       H  0.91290734  0.73630186  0.76519538     0.18800
N2606       N  0.97757598  0.72203381  0.81355377     0.76300
H2607       H  0.53143918  0.75586532  0.79012736     0.10300
C2608       C  0.56245892  0.82005761  0.76077093     0.04000
C2609       C  0.59807735  0.83698078  0.75381763    -0.04700
C2610       C  0.61188850  0.81722854  0.74338476    -0.23100
C2611       C  0.58552762  0.78102144  0.73714760     0.13200
C2612       C  0.54965226  0.76432724  0.74407436    -0.12300
N2613       N  0.55150027  0.84029864  0.77304814     0.64900
H2614       H  0.61478364  0.86568894  0.75725673     0.12700
N2615       N  0.59446966  0.76052974  0.72390249     0.61500
H2616       H  0.53074710  0.73607297  0.74021773     0.08900
O2617       O  0.49210307  0.74447098  0.82708542    -0.39900
O2618       O  0.97331148  0.69031251  0.81458303    -0.39100
O2619       O  0.96093343  0.74711119  0.72739791    -0.39100
O2620       O  0.46763320  0.79835188  0.73943626    -0.36800
O2621       O  0.58688096  0.76071228  0.70686465    -0.37700
O2622       O  0.59861667  0.73461124  0.72949468    -0.33900
O2623       O  0.55563827  0.84003249  0.79050743    -0.35300
O2624       O  0.54227835  0.86206690  0.76638835    -0.39600
C2625       C  0.76277328  0.51070811  0.76889430    -0.13300
C2626       C  0.72646719  0.98503231  0.77200304     0.17100
C2627       C  0.70709099  0.49535667  0.78608401     0.03400
C2628       C  0.72576034  0.52865944  0.79613929    -0.11800
C2629       C  0.76249738  0.55352137  0.79246668    -0.02800
C2630       C  0.78106388  0.54450579  0.77864716     0.02700
C2631       C  0.71021610  0.94772201  0.76289927     0.09500
N2632       N  0.67290949  0.96579523  0.79301003     0.65900
H2633       H  0.71119991  0.53555774  0.80663374     0.18800
N2634       N  0.81917346  0.56818782  0.77539519     0.76300
H2635       H  0.77801501  0.50337334  0.75906537     0.10300
C2636       C  0.70882175  0.94180677  0.74330136     0.04000
C2637       C  0.69312743  0.90603398  0.73568251    -0.04700
C2638       C  0.67565129  0.87497082  0.74698731    -0.23100
C2639       C  0.68006073  0.88166901  0.76682348     0.13200
C2640       C  0.69734722  0.91737512  0.77429592    -0.12300
N2641       N  0.72194176  0.97165252  0.73082741     0.64900
H2642       H  0.69407946  0.90317512  0.72067760     0.12700
N2643       N  0.66788094  0.85272506  0.77981209     0.61500
H2644       H  0.70048722  0.92133165  0.78936264     0.08900
O2645       O  0.82943022  0.58552533  0.76041671    -0.39900
O2646       O  0.84266986  0.56848361  0.78643578    -0.39100
O2647       O  0.66599087  0.95877342  0.81010085    -0.39100
O2648       O  0.64713178  0.95174158  0.78114188    -0.36800
O2649       O  0.69133835  0.84623107  0.78708670    -0.37700
O2650       O  0.63778092  0.84223757  0.78805471    -0.33900
O2651       O  0.74441920  0.97494114  0.71816604    -0.35300
O2652       O  0.71375646  0.49264135  0.72918857    -0.39600
loop_ 
_geom_bond_atom_site_label_1 
_geom_bond_atom_site_label_2 
_geom_bond_distance 
_geom_bond_site_symmetry_2 
_ccdc_geom_bond_type 
O1           C17   1.276       .  A
O1           Zn7   2.041       .  S
C2           O18   1.276       .  A
C2           O15   1.276       .  A
C2          C565   1.487       .  S
O3           C16   1.275       .  A
O3          Cd10   2.075       .  S
O4           C22   1.276       .  A
O4          Cd13   2.074       .  S
O5           C19   1.275       .  A
O5           Cd9   2.072       .  S
O6           C17   1.274       .  A
O6           Cd9   2.064       .  S
Zn7          O18   2.030       .  S
Zn7          O20   2.012       .  S
Zn7          O12   1.949       .  S
O8           C19   1.276       .  A
O8          Cd13   2.079       .  S
Cd9          O11   2.050       .  S
Cd9          O12   1.992       .  S
Cd10         O14   2.095       .  S
Cd10         O23   2.087       .  S
Cd10         O12   2.019       .  S
O11          C21   1.271       .  A
O12         Cd13   2.002       .  S
Cd13         O15   2.076       .  S
O14          C21   1.278       .  A
C16          O20   1.274       .  A
C16         C612   1.485       .  S
C17         C500   1.480       .  S
C19         C537   1.484       .  S
C21         C584   1.493       .  S
C22          O23   1.277       .  A
C22         C640   1.482       .  S
C24         C472   1.569       .  S
C24         C593   1.569       .  S
C24         C621   1.569       .  S
C24         C649   1.571       .  S
C25         C444   1.570       .  S
C25         C528   1.578   1_655  S
C25        C2498   1.584   1_545  S
C25        C1882   1.567       .  S
O26          C42   1.275       .  A
O26       Zn1358   2.027       .  S
C27          O43   1.276   1_545  A
C27          O40   1.273       .  A
C27         C276   1.488       .  S
O28          C41   1.276       .  A
O28         Cd35   2.081       .  S
O29          C47   1.275       .  A
O29         Cd38   2.063       .  S
O30          C44   1.275   1_565  A
O30        Cd697   2.071       .  S
O31          C42   1.273       .  A
O31         Cd34   2.056       .  S
Zn32         O45   2.022       .  S
Zn32       O1352   2.027   1_455  S
Zn32        O706   2.029       .  S
Zn32         O37   1.948       .  S
O33          C44   1.273       .  A
O33       Cd1364   2.063       .  S
Cd34         O36   2.060       .  S
Cd34        O693   2.077       .  S
Cd34       O1363   1.993       .  S
Cd35       O1365   2.082   1_455  S
Cd35        O711   2.091       .  S
Cd35         O37   2.010       .  S
O36          C46   1.274       .  A
O37       Cd1360   1.993   1_455  S
O37        Cd701   1.989       .  S
Cd38         O40   2.063       .  S
Cd38       O1359   2.063   1_455  S
Cd38        O700   1.988   1_545  S
O39          C46   1.277       .  A
O39       Cd1361   2.082       .  S
C41          O45   1.275       .  A
C41         C425   1.484       .  S
C42         C304   1.481       .  S
O43        Zn695   2.026       .  S
C44         C332   1.487       .  S
C46         C360   1.477       .  S
C47          O48   1.279       .  A
C47         C388   1.497       .  S
O48        Cd698   2.097   1_545  S
C49         C248   1.570       .  S
C49         C285   1.570       .  S
C49         C313   1.566       .  S
C49         C341   1.575       .  S
C50         C369   1.563       .  S
C50         C397   1.592       .  S
C50         C416   1.578       .  S
C50         C481   1.572       .  S
O51          C67   1.274       .  A
O51         Zn57   2.013       .  S
C52          O68   1.274       .  A
C52          O65   1.275       .  A
C52         C136   1.477       .  S
O53          C66   1.277       .  A
O53         Cd60   2.088       .  S
O54          C72   1.274       .  A
O54         Cd63   2.053       .  S
O55          C69   1.276       .  A
O55         Cd59   2.081       .  S
O56          C67   1.276       .  A
O56         Cd59   2.077       .  S
Zn57         O68   2.028       .  S
Zn57         O70   2.022       .  S
Zn57         O62   1.950       .  S
O58          C69   1.277       .  A
O58         Cd63   2.082       .  S
Cd59         O61   2.082       .  S
Cd59         O62   2.000       .  S
Cd60         O64   2.091       .  S
Cd60         O73   2.079       .  S
Cd60         O62   2.015       .  S
O61          C71   1.278       .  A
O62         Cd63   1.998       .  S
Cd63         O65   2.076       .  S
O64          C71   1.277       .  A
C66          O70   1.276       .  A
C66         C192   1.493       .  S
C67          C89   1.482       .  S
C69         C117   1.498       .  S
C71         C173   1.487       .  S
C72          O73   1.276       .  A
C72         C220   1.481       .  S
C74         C108   1.591   1_565  S
C74         C453   1.593       .  S
C74        C2069   1.594   1_455  S
C74         C808   1.599       .  S
C75         C164   1.578       .  S
C75         C201   1.582       .  S
C75         C229   1.562       .  S
C75         C257   1.572       .  S
C76          C77   1.395       .  A
C76          C81   1.408       .  A
C76          H86   1.089       .  S
C77          C82   1.482       .  S
C77          C78   1.396       .  A
C78          C79   1.392       .  A
C78          N83   1.430       .  S
C79          C80   1.421       .  A
C79          H84   1.084       .  S
C80        C2063   1.593       .  S
C80          C81   1.439       .  A
C81         N748   1.428       .  S
C82          C87   1.410       .  A
C82          C91   1.403       .  A
N83          O98   1.263       .  A
N83          O99   1.262       .  A
N85         C744   1.426   1_545  S
N85          O96   1.262       .  A
N85          O97   1.264       .  A
C87          C88   1.400       .  A
C87          N92   1.431       .  S
C88          C89   1.405       .  A
C88          H93   1.084       .  S
C89          C90   1.413       .  A
C90          C91   1.401       .  A
C90          N94   1.431       .  S
C91          H95   1.084       .  S
N92         O765   1.262       .  A
N92         O766   1.262       .  A
N94         O100   1.262       .  A
N94         O101   1.262       .  A
O102        N755   1.262   1_545  A
O103        N755   1.262       .  A
C104        C105   1.395       .  A
C104        C109   1.407       .  A
C104        H114   1.084       .  S
C105        C110   1.483       .  S
C105        C106   1.397       .  A
C106        C107   1.399       .  A
C106        N111   1.429       .  S
C107        C108   1.422       .  A
C107        H112   1.076       .  S
C108        C109   1.434       .  A
C109        N113   1.428       .  S
C110        C115   1.405       .  A
C110        C119   1.400       .  A
N111        O126   1.262       .  A
N111        O127   1.262       .  A
N113        O124   1.262   1_545  A
N113        O125   1.263   1_455  A
C115        C116   1.402       .  A
C115        N120   1.429       .  S
C116        C117   1.410       .  A
C116        H121   1.083       .  S
C117        C118   1.420       .  A
C118        C119   1.404       .  A
C118        N122   1.429       .  S
C119        H123   1.084       .  S
N120        O130   1.262       .  A
N120        O131   1.262       .  A
N122        O128   1.262       .  A
N122        O129   1.262       .  A
C132        C133   1.407       .  A
C132        C137   1.400       .  A
C132        H142   1.083       .  S
C133        C138   1.494       .  S
C133        C134   1.414       .  A
C134        C135   1.407       .  A
C134        N139   1.433       .  S
C135        C136   1.403       .  A
C135        H140   1.084       .  S
C136        C137   1.407       .  A
C137        N141   1.430       .  S
C138        C143   1.401       .  A
C138        C147   1.401       .  A
N139        O154   1.262       .  A
N139        O155   1.262       .  A
N141        O152   1.262       .  A
N141        O153   1.262       .  A
C143        C144   1.398       .  A
C143        N148   1.433       .  S
C144        C145   1.420       .  A
C144       H1475   1.062   1_455  S
C145        C737   1.599       .  S
C145        C146   1.432       .  A
C146        C147   1.411       .  A
C146        N813   1.431       .  S
C147        H151   1.079       .  S
N148        O159   1.262       .  A
N148       O1484   1.262   1_455  A
H149       C1470   1.064       .  S
N150        C809   1.431   1_545  S
N150        O156   1.263       .  A
N150        O157   1.262       .  A
O158       N1474   1.262       .  A
C160        C161   1.398       .  A
C160        C165   1.396       .  A
C160        H170   1.084       .  S
C161        C166   1.498       .  S
C161        C162   1.410       .  A
C162        C163   1.409       .  A
C162        N167   1.431       .  S
C163        C164   1.420       .  A
C163        H168   1.078       .  S
C164        C165   1.434       .  A
C165        N169   1.433       .  S
C166        C171   1.416       .  A
C166        C175   1.407       .  A
N167        O182   1.262       .  A
N167        O183   1.262       .  A
N169        O180   1.262       .  A
N169        O181   1.262       .  A
C171        C172   1.402       .  A
C171        N176   1.434       .  S
C172        C173   1.403       .  A
C172        H177   1.084       .  S
C173        C174   1.413       .  A
C174        C175   1.407       .  A
C174        N178   1.429       .  S
C175        H179   1.083       .  S
N176        O186   1.262       .  A
N176        O187   1.262       .  A
N178        O184   1.262       .  A
N178        O185   1.262       .  A
C188        C193   1.404       .  A
C188        C852   1.400       .  A
C188        H198   1.084       .  S
C189        C194   1.479       .  S
C189        C190   1.408       .  A
C189        C851   1.399   1_545  A
C190        C854   1.400   1_545  A
C190        N195   1.432       .  S
C191        C192   1.409       .  A
C191        C853   1.401       .  A
C191        H196   1.083       .  S
C192        C193   1.417       .  A
C193        N197   1.428       .  S
C194        C199   1.401       .  A
C194        C203   1.393       .  A
N195        O210   1.262       .  A
N195        O211   1.262       .  A
N197        O208   1.262       .  A
N197        O209   1.262       .  A
C199        C200   1.399       .  A
C199        N204   1.432       .  S
C200        C201   1.422       .  A
C200        H205   1.079       .  S
C201        C202   1.434       .  A
C202        C203   1.402       .  A
C202        N206   1.428       .  S
C203        H207   1.084       .  S
N204        O214   1.262       .  A
N204        O215   1.262       .  A
N206        O212   1.262       .  A
N206        O213   1.263       .  A
C216        C217   1.400       .  A
C216       C1547   1.401       .  A
C216        H226   1.084       .  S
C217        C222   1.473       .  S
C217       C1544   1.405       .  A
C218        C219   1.397   1_655  A
C218       C1543   1.405       .  A
C218        N223   1.429       .  S
C219        C220   1.407       .  A
C219        H224   1.084       .  S
C220        C221   1.414       .  A
C221       C1542   1.401       .  A
C221        N225   1.428       .  S
C222        C227   1.399       .  A
C222        C231   1.393       .  A
N223        O238   1.262       .  A
N223       O1565   1.262       .  A
N225        O236   1.262       .  A
N225        O237   1.262       .  A
C227        C228   1.397       .  A
C227        N232   1.429       .  S
C228        C229   1.418       .  A
C228        H233   1.076       .  S
C229        C230   1.438       .  A
C230        C231   1.401       .  A
C230        N234   1.435       .  S
C231        H235   1.084       .  S
N232        O242   1.262       .  A
N232        O243   1.262       .  A
N234        O240   1.261       .  A
N234        O241   1.262       .  A
O239       N1549   1.262       .  A
C244        C245   1.397       .  A
C244        C249   1.400       .  A
C244        H254   1.084       .  S
C245        C250   1.491       .  S
C245        C246   1.408       .  A
C246        C247   1.404       .  A
C246        N251   1.432       .  S
C247        C248   1.417       .  A
C247        H252   1.078       .  S
C248        C249   1.434       .  A
C249        N253   1.432       .  S
C250        C255   1.404       .  A
C250        C259   1.398       .  A
N251        O266   1.262       .  A
N251        O267   1.262       .  A
N253        O264   1.262       .  A
N253        O265   1.262       .  A
C255        C256   1.399       .  A
C255        N260   1.430       .  S
C256        C257   1.418       .  A
C256        H261   1.083       .  S
C257        C258   1.444       .  A
C258        C259   1.407       .  A
C258        N262   1.436       .  S
C259        H263   1.084       .  S
N260        O270   1.262       .  A
N260        O271   1.262       .  A
N262        O268   1.260       .  A
N262        O269   1.263       .  A
C272        C273   1.400       .  A
C272        C277   1.401       .  A
C272        H282   1.084       .  S
C273        C278   1.479       .  S
C273        C274   1.407       .  A
C274        C275   1.400       .  A
C274        N279   1.430       .  S
C275        C276   1.407       .  A
C275        H280   1.084       .  S
C276        C277   1.417       .  A
C277        N281   1.429       .  S
C278        C283   1.401       .  A
C278        C287   1.393       .  A
N279        O294   1.262       .  A
N279        O295   1.262       .  A
N281        O292   1.262       .  A
N281        O293   1.262       .  A
C283        C284   1.402       .  A
C283        N288   1.429       .  S
C284        C285   1.420       .  A
C284        H289   1.079       .  S
C285        C286   1.435       .  A
C286        C287   1.397       .  A
C286        N290   1.432       .  S
C287        H291   1.084       .  S
N288        O298   1.262       .  A
N288        O299   1.262       .  A
N290        O296   1.262       .  A
N290        O297   1.262       .  A
C300        C301   1.400       .  A
C300        C305   1.398       .  A
C300        H310   1.084       .  S
C301        C306   1.480       .  S
C301        C302   1.410       .  A
C302        C303   1.401       .  A
C302        N307   1.430       .  S
C303        C304   1.405       .  A
C303        H308   1.084       .  S
C304        C305   1.414       .  A
C305        N309   1.430       .  S
C306        C311   1.404       .  A
C306        C315   1.397       .  A
N307        O322   1.262       .  A
N307        O323   1.262       .  A
N309        O320   1.262       .  A
N309        O321   1.262       .  A
C311        C312   1.396       .  A
C311        N316   1.429       .  S
C312        C313   1.415       .  A
C312        H317   1.080       .  S
C313        C314   1.432       .  A
C314        C315   1.401       .  A
C314        N318   1.432       .  S
C315        H319   1.084       .  S
N316        O326   1.262       .  A
N316        O327   1.262       .  A
N318        O324   1.262       .  A
N318        O325   1.262       .  A
C328        C329   1.402       .  A
C328        C333   1.398       .  A
C328        H338   1.084       .  S
C329        C334   1.487       .  S
C329        C330   1.411       .  A
C330        C331   1.402       .  A
C330        N335   1.430       .  S
C331        C332   1.407       .  A
C331        H336   1.084       .  S
C332        C333   1.415       .  A
C333       N1663   1.429       .  S
C334        C339   1.403       .  A
C334        C343   1.400       .  A
N335        O350   1.262   1_545  A
N335        O351   1.262       .  A
N337       C1659   1.429       .  S
N337        O348   1.262   1_655  A
N337        O349   1.261   1_655  A
C339        C340   1.394       .  A
C339        N344   1.432       .  S
C340        C341   1.420       .  A
C340        H345   1.076       .  S
C341        C342   1.433       .  A
C342        C343   1.405       .  A
C342        N346   1.432       .  S
C343        H347   1.083       .  S
N344        O354   1.262       .  A
N344        O355   1.262       .  A
N346        O352   1.262       .  A
N346        O353   1.262       .  A
C356        C357   1.405       .  A
C356        C361   1.398       .  A
C356        H366   1.084       .  S
C357        C362   1.490       .  S
C357        C358   1.415       .  A
C358        C359   1.402       .  A
C358        N363   1.431       .  S
C359        C360   1.402       .  A
C359        H364   1.084       .  S
C360        C361   1.411       .  A
C361        N365   1.430       .  S
C362        C367   1.406       .  A
C362        C371   1.400       .  A
N363        O378   1.262       .  A
N363        O379   1.262       .  A
N365        O376   1.262       .  A
N365        O377   1.262       .  A
C367        C368   1.394       .  A
C367        N372   1.434       .  S
C368        C369   1.419       .  A
C368        H373   1.083       .  S
C369        C370   1.439       .  A
C370        C371   1.407       .  A
C370        N374   1.437       .  S
C371        H375   1.084       .  S
N372        O382   1.262       .  A
N372        O383   1.262       .  A
N374        O380   1.260       .  A
N374        O381   1.263       .  A
C384        C385   1.403       .  A
C384        C389   1.404       .  A
C384        H394   1.084       .  S
C385        C390   1.489       .  S
C385        C386   1.412       .  A
C386        C387   1.402       .  A
C386        N391   1.436       .  S
C387        C388   1.410       .  A
C387        H392   1.083       .  S
C388        C389   1.416       .  A
C389        N393   1.429       .  S
C390        C395   1.407       .  A
C390        C399   1.394       .  A
N391        O406   1.262       .  A
N391        O407   1.262       .  A
N393        O404   1.262       .  A
N393        O405   1.262       .  A
C395        C396   1.404       .  A
C395        N400   1.437       .  S
C396        C397   1.424       .  A
C396        H401   1.076       .  S
C397        C398   1.435       .  A
C398        C399   1.402       .  A
C398        N402   1.428       .  S
C399        H403   1.084       .  S
N400        O410   1.262       .  A
N400        O411   1.263       .  A
N402        O408   1.262       .  A
N402        O409   1.262       .  A
C412        C413   1.393       .  A
C412        C417   1.403       .  A
C412        H422   1.084       .  S
C413        C418   1.478       .  S
C413        C414   1.398       .  A
C414        C415   1.399       .  A
C414        N419   1.428       .  S
C415        C416   1.423       .  A
C415        H420   1.083       .  S
C416        C417   1.443       .  A
C417        N421   1.434       .  S
C418        C423   1.409       .  A
C418        C427   1.399       .  A
N419        O434   1.262       .  A
N419        O435   1.262       .  A
N421        O432   1.260       .  A
N421        O433   1.263       .  A
C423        C424   1.404       .  A
C423        N428   1.430       .  S
C424        C425   1.407       .  A
C424        H429   1.084       .  S
C425        C426   1.414       .  A
C426        C427   1.399       .  A
C426        N430   1.429       .  S
C427        H431   1.084       .  S
N428        O438   1.262       .  A
N428        O439   1.262       .  A
N430        O436   1.262       .  A
N430        O437   1.262       .  A
C440        C445   1.407       .  A
C440       C1767   1.401       .  A
C440        H450   1.083       .  S
C441        C446   1.495   1_556  S
C441        C442   1.406   1_545  A
C441       C1766   1.401   1_455  A
C442       C1106   1.397       .  A
C442        N447   1.432       .  S
C443       C1105   1.397       .  A
C443       C1107   1.418   1_455  A
C443        H448   1.083       .  S
C444       C1106   1.418   1_645  A
C444       C1771   1.441       .  A
C445       C1770   1.441       .  A
C445        N449   1.437       .  S
C446        C451   1.403       .  A
C446       C1118   1.397   1_445  A
N447        O463   1.262   1_565  A
N447       O1125   1.262       .  A
N449        O460   1.263       .  A
N449        O461   1.260       .  A
C451        C452   1.400       .  A
C451        N456   1.431       .  S
C452        C453   1.424   1_545  A
C452        H457   1.074       .  S
C453       C1117   1.433   1_455  A
C454        C455   1.405       .  A
C454       C1116   1.433   1_655  A
C454        N458   1.424       .  S
C455       C1109   1.396   1_655  A
C455        H459   1.084       .  S
N456        O466   1.262   1_455  A
N456        O467   1.262       .  A
N458        O465   1.263       .  A
N458       O1790   1.262       .  A
O462       N1110   1.262       .  A
O464       N1784   1.262       .  A
C468        C469   1.398       .  A
C468        C473   1.401       .  A
C468        H478   1.084       .  S
C469        C474   1.482       .  S
C469        C470   1.404       .  A
C470        C471   1.399       .  A
C470        N475   1.436       .  S
C471        C472   1.421       .  A
C471        H476   1.077       .  S
C472        C473   1.431       .  A
C473        N477   1.432       .  S
C474        C479   1.406       .  A
C474        C483   1.392       .  A
N475        O490   1.262       .  A
N475        O491   1.263       .  A
N477        O488   1.263       .  A
N477        O489   1.261       .  A
C479        C480   1.403       .  A
C479        N484   1.435       .  S
C480        C481   1.420       .  A
C480        H485   1.076       .  S
C481        C482   1.436       .  A
C482        C483   1.398       .  A
C482        N486   1.430       .  S
C483        H487   1.085       .  S
N484        O494   1.262       .  A
N484        O495   1.263       .  A
N486        O492   1.262       .  A
N486        O493   1.262       .  A
C496        C497   1.399       .  A
C496        C501   1.398       .  A
C496        H506   1.084       .  S
C497        C502   1.480       .  S
C497        C498   1.410       .  A
C498        C499   1.406       .  A
C498        N503   1.431       .  S
C499        C500   1.405       .  A
C499        H504   1.084       .  S
C500        C501   1.412       .  A
C501        N505   1.429       .  S
C502        C507   1.401       .  A
C502        C511   1.394       .  A
N503        O518   1.262       .  A
N503        O519   1.262       .  A
N505        O516   1.262       .  A
N505        O517   1.261       .  A
C507        C508   1.400       .  A
C507       N1838   1.431       .  S
C508        C509   1.424       .  A
C508       H1839   1.079       .  S
C509       C2014   1.586       .  S
C509        C510   1.433       .  A
C510        C511   1.403       .  A
C510        N514   1.428       .  S
C511        H515   1.084       .  S
N512       C1833   1.431   1_455  S
N512        O522   1.262       .  A
N512       O1849   1.262       .  A
H513       C1834   1.079   1_455  S
N514        O520   1.263       .  A
N514        O521   1.262       .  A
O523       N1838   1.262       .  A
C524        C525   1.397       .  A
C524        C529   1.397       .  A
C524        H534   1.084       .  S
C525        C530   1.487       .  S
C525        C526   1.408       .  A
C526        C527   1.406       .  A
C526        N531   1.435       .  S
C527        C528   1.421       .  A
C527        H532   1.077       .  S
C528        C529   1.433       .  A
C529        N533   1.432       .  S
C530        C535   1.415       .  A
C530        C539   1.402       .  A
N531        O546   1.262       .  A
N531        O547   1.262       .  A
N533       O1207   1.262       .  A
N533       O2534   1.262   1_445  A
C535        C536   1.407       .  A
C535        N540   1.434       .  S
C536        C537   1.406       .  A
C536        H541   1.084       .  S
C537        C538   1.413       .  A
C538        C539   1.399       .  A
C538        N542   1.432       .  S
C539        H543   1.084       .  S
N540       O1213   1.262       .  A
N540       O1214   1.262       .  A
N542        O548   1.263       .  A
N542        O549   1.262       .  A
O544       N1196   1.262       .  A
O545       N2522   1.262       .  A
O550       N1203   1.262       .  A
O551       N1203   1.262       .  A
C552        C553   1.397       .  A
C552        C557   1.403       .  A
C552        H562   1.084       .  S
C553        C558   1.486       .  S
C553        C554   1.406       .  A
C554        C555   1.402       .  A
C554        N559   1.434       .  S
C555        C556   1.419       .  A
C555       H1223   1.075   1_545  S
C556       C1351   1.567       .  S
C556        C557   1.435       .  A
C557       N1887   1.434       .  S
C558        C563   1.413       .  A
C558        C567   1.401       .  A
N559        O575   1.262   1_545  A
N559       O1237   1.262       .  A
H560       C1218   1.075       .  S
N561       C1883   1.434   1_455  S
N561        O572   1.261       .  A
N561        O573   1.262       .  A
C563        C564   1.405       .  A
C563        N568   1.434       .  S
C564        C565   1.406       .  A
C564        H569   1.084       .  S
C565        C566   1.413       .  A
C566        C567   1.400       .  A
C566        N570   1.427       .  S
C567        H571   1.084       .  S
N568        O578   1.262       .  A
N568        O579   1.262       .  A
N570        O576   1.262       .  A
N570        O577   1.261       .  A
O574       N1222   1.262       .  A
C580        C581   1.397       .  A
C580        C585   1.396       .  A
C580        H590   1.084       .  S
C581        C586   1.479       .  S
C581        C582   1.407       .  A
C582        C583   1.404       .  A
C582        N587   1.429       .  S
C583        C584   1.409       .  A
C583        H588   1.083       .  S
C584        C585   1.420       .  A
C585        N589   1.428       .  S
C586        C591   1.404       .  A
C586        C595   1.395       .  A
N587        O602   1.262       .  A
N587        O603   1.262       .  A
N589        O600   1.261       .  A
N589        O601   1.261       .  A
C591        C592   1.398       .  A
C591        N596   1.430       .  S
C592        C593   1.417       .  A
C592        H597   1.078       .  S
C593        C594   1.434       .  A
C594        C595   1.400       .  A
C594        N598   1.432       .  S
C595        H599   1.084       .  S
N596        O606   1.262       .  A
N596        O607   1.262       .  A
N598        O604   1.262       .  A
N598        O605   1.262       .  A
C608        C609   1.395       .  A
C608       C1939   1.394   1_455  A
C608        H618   1.085       .  S
C609        C614   1.472       .  S
C609       C1936   1.405   1_455  A
C610        C611   1.404       .  A
C610       C1935   1.405       .  A
C610        N615   1.429       .  S
C611        C612   1.410       .  A
C611        H616   1.083       .  S
C612        C613   1.415       .  A
C613       C1934   1.394       .  A
C613        N617   1.427       .  S
C614        C619   1.399       .  A
C614        C623   1.395       .  A
N615        O630   1.262       .  A
N615       O1957   1.262       .  A
N617        O629   1.261       .  A
N617       O1954   1.262       .  A
C619        C620   1.395       .  A
C619        N624   1.429       .  S
C620        C621   1.418       .  A
C620        H625   1.079       .  S
C621        C622   1.433       .  A
C622        C623   1.402       .  A
C622        N626   1.431       .  S
C623        H627   1.084       .  S
N624        O634   1.262       .  A
N624        O635   1.261       .  A
N626        O632   1.262       .  A
N626        O633   1.262       .  A
O628       N1943   1.262       .  A
O631       N1941   1.262       .  A
C636        C641   1.405       .  A
C636       C1300   1.408   1_545  A
C636        H646   1.083       .  S
C637        C642   1.495       .  S
C637       C1299   1.408       .  A
C637       C1301   1.416       .  A
C638        C639   1.402   1_565  A
C638       C1300   1.418       .  A
C638       N1306   1.435       .  S
C639        C640   1.401       .  A
C639        H644   1.084       .  S
C640        C641   1.410       .  A
C641        N645   1.429       .  S
C642        C647   1.409       .  A
C642        C651   1.398       .  A
N643       C1301   1.433       .  S
N643        O658   1.262       .  A
N643        O659   1.262       .  A
N645        O656   1.262       .  A
N645        O657   1.262       .  A
C647        C648   1.406       .  A
C647        N652   1.430       .  S
C648        C649   1.417       .  A
C648        H653   1.079       .  S
C649        C650   1.433       .  A
C650        C651   1.399       .  A
C650        N654   1.432       .  S
C651        H655   1.084       .  S
N652        O662   1.262       .  A
N652       O1326   1.262       .  A
N654        O660   1.262       .  A
N654        O661   1.262       .  A
O663       N1315   1.262       .  A
O664        C680   1.276       .  A
O664       Zn670   2.035       .  S
C665        O681   1.275       .  A
C665        O678   1.274       .  A
C665       C1228   1.480       .  S
O666        C679   1.276       .  A
O666       Cd673   2.082       .  S
O667        C685   1.275       .  A
O667       Cd676   2.067       .  S
O668        C682   1.275       .  A
O668       Cd672   2.083       .  S
O669        C680   1.274       .  A
O669       Cd672   2.064       .  S
Zn670       O681   2.025       .  S
Zn670       O683   2.015       .  S
Zn670       O675   1.948       .  S
O671        C682   1.275       .  A
O671       Cd676   2.071       .  S
Cd672       O674   2.057       .  S
Cd672       O675   1.996       .  S
Cd673       O677   2.096       .  S
Cd673       O686   2.092       .  S
Cd673       O675   2.017       .  S
O674        C684   1.273       .  A
O675       Cd676   1.998       .  S
Cd676       O678   2.068       .  S
O677        C684   1.279       .  A
C679        O683   1.274       .  A
C679       C1275   1.488       .  S
C680       C1163   1.481       .  S
C682       C1200   1.495       .  S
C684       C1247   1.495       .  S
C685        O686   1.278       .  A
C685       C1303   1.478       .  S
C687       C1135   1.572       .  S
C687       C1256   1.572       .  S
C687       C1284   1.572       .  S
C687       C1312   1.573       .  S
C688       C1107   1.570       .  S
C688       C1835   1.586       .  S
C688       C1191   1.578   1_655  S
C688       C2545   1.565       .  S
O689        C705   1.275       .  A
O689      Zn2021   2.027       .  S
C690        O706   1.277       .  A
C690        O703   1.273       .  A
C690        C939   1.487       .  S
O691        C704   1.277       .  A
O691       Cd698   2.083       .  S
O692        C710   1.275       .  A
O692       Cd701   2.065       .  S
O693        C707   1.275       .  A
O694        C705   1.271       .  A
O694       Cd697   2.051       .  S
Zn695      O2015   2.027   1_455  S
Zn695       O708   2.013       .  S
Zn695       O700   1.943       .  S
O696        C707   1.274       .  A
O696      Cd2027   2.067       .  S
Cd697       O699   2.057       .  S
Cd697      O2026   1.991       .  S
Cd698      O2028   2.086   1_455  S
Cd698       O700   2.013       .  S
O699        C709   1.273       .  A
O700      Cd2023   1.991   1_455  S
Cd701      O2022   2.067   1_455  S
Cd701       O703   2.060       .  S
O702        C709   1.277       .  A
O702      Cd2024   2.086       .  S
C704        O708   1.275       .  A
C704       C1088   1.490       .  S
C705        C967   1.483       .  S
C707        C995   1.486       .  S
C709       C1023   1.474       .  S
C710        O711   1.277       .  A
C710       C1051   1.495       .  S
C712        C911   1.571       .  S
C712        C948   1.571       .  S
C712        C976   1.567       .  S
C712       C1004   1.576       .  S
C713       C1032   1.566       .  S
C713       C1060   1.591       .  S
C713       C1079   1.577       .  S
C713       C1144   1.571       .  S
O714        C730   1.274       .  A
O714       Zn720   2.014       .  S
C715        O731   1.273       .  A
C715        O728   1.275       .  A
C715        C799   1.475       .  S
O716        C729   1.275       .  A
O716       Cd723   2.079       .  S
O717        C735   1.274       .  A
O717       Cd726   2.058       .  S
O718        C732   1.275       .  A
O718       Cd722   2.072       .  S
O719        C730   1.275       .  A
O719       Cd722   2.069       .  S
Zn720       O731   2.025       .  S
Zn720       O733   2.016       .  S
Zn720       O725   1.945       .  S
O721        C732   1.278       .  A
O721       Cd726   2.085       .  S
Cd722       O724   2.074       .  S
Cd722       O725   1.995       .  S
Cd723       O727   2.084       .  S
Cd723       O736   2.072       .  S
Cd723       O725   2.012       .  S
O724        C734   1.276       .  A
O725       Cd726   1.997       .  S
Cd726       O728   2.080       .  S
O727        C734   1.276       .  A
C729        O733   1.275       .  A
C729        C855   1.493       .  S
C730        C752   1.478       .  S
C732        C780   1.494       .  S
C734        C836   1.484       .  S
C735        O736   1.275       .  A
C735        C883   1.478       .  S
C737       C1406   1.593   1_455  S
C737        C771   1.590       .  S
C737       C1116   1.593       .  S
C738        C827   1.577       .  S
C738        C864   1.585       .  S
C738        C892   1.564       .  S
C738        C920   1.572       .  S
C739        C740   1.393       .  A
C739        C744   1.406       .  A
C739        H749   1.095       .  S
C740        C745   1.477       .  S
C740        C741   1.393       .  A
C741        C742   1.392       .  A
C741        N746   1.429       .  S
C742        C743   1.423       .  A
C742        H747   1.096       .  S
C743       C1400   1.594       .  S
C743        C744   1.439       .  A
C745        C750   1.409       .  A
C745        C754   1.402       .  A
N746        O761   1.263       .  A
N746        O762   1.262       .  A
N748        O759   1.262       .  A
N748        O760   1.263       .  A
C750        C751   1.399       .  A
C750        N755   1.431       .  S
C751        C752   1.404       .  A
C751        H756   1.084       .  S
C752        C753   1.412       .  A
C753        C754   1.401       .  A
C753        N757   1.430       .  S
C754        H758   1.085       .  S
N757        O763   1.262       .  A
N757        O764   1.262       .  A
C767        C768   1.394       .  A
C767        C772   1.406       .  A
C767        H777   1.084       .  S
C768        C773   1.479       .  S
C768        C769   1.397       .  A
C769        C770   1.398       .  A
C769        N774   1.429       .  S
C770        C771   1.422       .  A
C770        H775   1.075       .  S
C771        C772   1.435       .  A
C772        N776   1.428       .  S
C773        C778   1.406       .  A
C773        C782   1.399       .  A
N774        O789   1.262       .  A
N774        O790   1.262       .  A
N776        O787   1.262       .  A
N776        O788   1.263   1_455  A
C778        C779   1.402       .  A
C778        N783   1.429       .  S
C779        C780   1.409       .  A
C779        H784   1.083       .  S
C780        C781   1.420       .  A
C781        C782   1.402       .  A
C781        N785   1.429       .  S
C782        H786   1.084       .  S
N783        O793   1.262       .  A
N783        O794   1.262       .  A
N785        O791   1.262       .  A
N785        O792   1.262       .  A
C795        C796   1.405       .  A
C795        C800   1.400       .  A
C795        H805   1.083       .  S
C796        C801   1.487       .  S
C796        C797   1.411       .  A
C797        C798   1.407       .  A
C797        N802   1.432       .  S
C798        C799   1.403       .  A
C798        H803   1.083       .  S
C799        C800   1.407       .  A
C800        N804   1.430       .  S
C801        C806   1.397       .  A
C801        C810   1.399       .  A
N802        O817   1.262       .  A
N802        O818   1.262       .  A
N804        O815   1.262       .  A
N804        O816   1.262       .  A
C806        C807   1.397       .  A
C806        N811   1.432       .  S
C807        C808   1.421       .  A
C807       H2138   1.056   1_455  S
C808        C809   1.432       .  A
C809        C810   1.412       .  A
C810        H814   1.076       .  S
N811       O2147   1.261   1_455  A
N811        O822   1.262       .  A
H812       C2133   1.056       .  S
N813        O819   1.263       .  A
N813        O820   1.263       .  A
O821       N2137   1.261       .  A
C823        C824   1.398       .  A
C823        C828   1.396       .  A
C823        H833   1.083       .  S
C824        C829   1.497       .  S
C824        C825   1.411       .  A
C825        C826   1.407       .  A
C825        N830   1.433       .  S
C826        C827   1.420       .  A
C826        H831   1.078       .  S
C827        C828   1.433       .  A
C828        N832   1.433       .  S
C829        C834   1.417       .  A
C829        C838   1.407       .  A
N830        O845   1.262       .  A
N830        O846   1.262       .  A
N832        O843   1.261       .  A
N832        O844   1.262       .  A
C834        C835   1.402       .  A
C834        N839   1.435       .  S
C835        C836   1.403       .  A
C835        H840   1.084       .  S
C836        C837   1.412       .  A
C837        C838   1.404       .  A
C837        N841   1.429       .  S
C838        H842   1.083       .  S
N839        O849   1.263       .  A
N839        O850   1.262       .  A
N841        O847   1.262       .  A
N841        O848   1.262       .  A
C851        C856   1.402       .  A
C851        H861   1.084       .  S
C852        C857   1.480       .  S
C852        C853   1.407       .  A
C853        N858   1.431       .  S
C854        C855   1.409       .  A
C854        H859   1.083       .  S
C855        C856   1.418       .  A
C856        N860   1.428       .  S
C857        C862   1.400       .  A
C857        C866   1.393       .  A
N858        O873   1.262       .  A
N858        O874   1.262       .  A
N860        O871   1.262       .  A
N860        O872   1.262       .  A
C862        C863   1.400       .  A
C862        N867   1.429       .  S
C863        C864   1.422       .  A
C863        H868   1.079       .  S
C864        C865   1.434       .  A
C865        C866   1.404       .  A
C865        N869   1.428       .  S
C866        H870   1.084       .  S
N867        O877   1.262       .  A
N867        O878   1.262       .  A
N869        O875   1.262       .  A
N869        O876   1.263       .  A
C879        C880   1.400       .  A
C879       C2210   1.401       .  A
C879        H889   1.084       .  S
C880        C885   1.472       .  S
C880       C2207   1.405       .  A
C881       C2206   1.405       .  A
C881        C882   1.397   1_655  A
C881        N886   1.429       .  S
C882        C883   1.406       .  A
C882        H887   1.084       .  S
C883        C884   1.413       .  A
C884       C2205   1.401       .  A
C884        N888   1.429       .  S
C885        C890   1.398       .  A
C885        C894   1.392       .  A
N886        O901   1.262       .  A
N886       O2228   1.262       .  A
N888        O899   1.262       .  A
N888        O900   1.262       .  A
C890        C891   1.396       .  A
C890        N895   1.429       .  S
C891        C892   1.420       .  A
C891        H896   1.076       .  S
C892        C893   1.439       .  A
C893        C894   1.401       .  A
C893        N897   1.435       .  S
C894        H898   1.085       .  S
N895        O905   1.262       .  A
N895        O906   1.262       .  A
N897        O903   1.261       .  A
N897        O904   1.263       .  A
O902       N2212   1.262       .  A
C907        C908   1.398       .  A
C907        C912   1.403       .  A
C907        H917   1.084       .  S
C908        C913   1.493       .  S
C908        C909   1.408       .  A
C909        C910   1.402       .  A
C909        N914   1.432       .  S
C910        C911   1.416       .  A
C910        H915   1.078       .  S
C911        C912   1.434       .  A
C912        N916   1.432       .  S
C913        C918   1.404       .  A
C913        C922   1.399       .  A
N914        O929   1.262       .  A
N914        O930   1.262       .  A
N916        O927   1.262       .  A
N916        O928   1.262       .  A
C918        C919   1.400       .  A
C918        N923   1.430       .  S
C919        C920   1.418       .  A
C919        H924   1.084       .  S
C920        C921   1.442       .  A
C921        C922   1.406       .  A
C921        N925   1.436       .  S
C922        H926   1.084       .  S
N923        O933   1.262       .  A
N923        O934   1.262       .  A
N925        O931   1.260       .  A
N925        O932   1.263       .  A
C935        C936   1.401       .  A
C935        C940   1.401       .  A
C935        H945   1.084       .  S
C936        C941   1.482       .  S
C936        C937   1.410       .  A
C937        C938   1.401       .  A
C937        N942   1.432       .  S
C938        C939   1.406       .  A
C938        H943   1.084       .  S
C939        C940   1.417       .  A
C940        N944   1.429       .  S
C941        C946   1.402       .  A
C941        C950   1.395       .  A
N942        O957   1.262       .  A
N942        O958   1.262       .  A
N944        O955   1.262       .  A
N944        O956   1.262       .  A
C946        C947   1.402       .  A
C946        N951   1.429       .  S
C947        C948   1.419       .  A
C947        H952   1.078       .  S
C948        C949   1.435       .  A
C949        C950   1.398       .  A
C949        N953   1.432       .  S
C950        H954   1.084       .  S
N951        O961   1.262       .  A
N951        O962   1.262       .  A
N953        O959   1.262       .  A
N953        O960   1.262       .  A
C963        C964   1.401       .  A
C963        C968   1.398       .  A
C963        H973   1.084       .  S
C964        C969   1.482       .  S
C964        C965   1.411       .  A
C965        C966   1.401       .  A
C965        N970   1.432       .  S
C966        C967   1.406       .  A
C966        H971   1.084       .  S
C967        C968   1.415       .  A
C968        N972   1.430       .  S
C969        C974   1.405       .  A
C969        C978   1.398       .  A
N970        O985   1.262       .  A
N970        O986   1.262       .  A
N972        O983   1.262       .  A
N972        O984   1.262       .  A
C974        C975   1.397       .  A
C974        N979   1.431       .  S
C975        C976   1.416       .  A
C975        H980   1.079       .  S
C976        C977   1.432       .  A
C977        C978   1.401       .  A
C977        N981   1.432       .  S
C978        H982   1.084       .  S
N979        O989   1.262       .  A
N979        O990   1.262       .  A
N981        O987   1.262       .  A
N981        O988   1.262       .  A
C991        C992   1.402       .  A
C991        C996   1.400       .  A
C991       H1001   1.084       .  S
C992        C997   1.486       .  S
C992        C993   1.410       .  A
C993        C994   1.403       .  A
C993        N998   1.430       .  S
C994        C995   1.406       .  A
C994        H999   1.084       .  S
C995        C996   1.414       .  A
C996       N2326   1.429       .  S
C997       C1002   1.402       .  A
C997       C1006   1.398       .  A
N998       O1013   1.262       .  A
N998       O1014   1.262       .  A
N1000      C2322   1.429       .  S
N1000      O1011   1.262   1_655  A
N1000      O1012   1.262   1_655  A
C1002      C1003   1.396       .  A
C1002      N1007   1.430       .  S
C1003      C1004   1.420       .  A
C1003      H1008   1.076       .  S
C1004      C1005   1.435       .  A
C1005      C1006   1.405       .  A
C1005      N1009   1.432       .  S
C1006      H1010   1.084       .  S
N1007      O1017   1.262       .  A
N1007      O1018   1.262       .  A
N1009      O1015   1.262       .  A
N1009      O1016   1.262       .  A
C1019      C1020   1.404       .  A
C1019      C1024   1.399       .  A
C1019      H1029   1.084       .  S
C1020      C1025   1.488       .  S
C1020      C1021   1.414       .  A
C1021      C1022   1.401       .  A
C1021      N1026   1.430       .  S
C1022      C1023   1.400       .  A
C1022      H1027   1.084       .  S
C1023      C1024   1.410       .  A
C1024      N1028   1.430       .  S
C1025      C1030   1.404       .  A
C1025      C1034   1.399       .  A
N1026      O1041   1.262       .  A
N1026      O1042   1.262       .  A
N1028      O1039   1.262       .  A
N1028      O1040   1.262       .  A
C1030      C1031   1.395       .  A
C1030      N1035   1.432       .  S
C1031      C1032   1.420       .  A
C1031      H1036   1.083       .  S
C1032      C1033   1.439       .  A
C1033      C1034   1.407       .  A
C1033      N1037   1.437       .  S
C1034      H1038   1.084       .  S
N1035      O1045   1.262       .  A
N1035      O1046   1.262       .  A
N1037      O1043   1.260       .  A
N1037      O1044   1.263       .  A
C1047      C1048   1.403       .  A
C1047      C1052   1.404       .  A
C1047      H1057   1.084       .  S
C1048      C1053   1.488       .  S
C1048      C1049   1.412       .  A
C1049      C1050   1.402       .  A
C1049      N1054   1.435       .  S
C1050      C1051   1.409       .  A
C1050      H1055   1.083       .  S
C1051      C1052   1.416       .  A
C1052      N1056   1.428       .  S
C1053      C1058   1.406       .  A
C1053      C1062   1.394       .  A
N1054      O1069   1.262       .  A
N1054      O1070   1.262       .  A
N1056      O1067   1.262       .  A
N1056      O1068   1.262       .  A
C1058      C1059   1.403       .  A
C1058      N1063   1.437       .  S
C1059      C1060   1.425       .  A
C1059      H1064   1.076       .  S
C1060      C1061   1.435       .  A
C1061      C1062   1.402       .  A
C1061      N1065   1.428       .  S
C1062      H1066   1.084       .  S
N1063      O1073   1.262       .  A
N1063      O1074   1.263       .  A
N1065      O1071   1.262       .  A
N1065      O1072   1.262       .  A
C1075      C1076   1.393       .  A
C1075      C1080   1.402       .  A
C1075      H1085   1.085       .  S
C1076      C1081   1.477       .  S
C1076      C1077   1.400       .  A
C1077      C1078   1.399       .  A
C1077      N1082   1.430       .  S
C1078      C1079   1.424       .  A
C1078      H1083   1.083       .  S
C1079      C1080   1.440       .  A
C1080      N1084   1.432       .  S
C1081      C1086   1.407       .  A
C1081      C1090   1.397       .  A
N1082      O1097   1.262       .  A
N1082      O1098   1.262       .  A
N1084      O1095   1.260       .  A
N1084      O1096   1.263       .  A
C1086      C1087   1.404       .  A
C1086      N1091   1.429       .  S
C1087      C1088   1.410       .  A
C1087      H1092   1.083       .  S
C1088      C1089   1.417       .  A
C1089      C1090   1.397       .  A
C1089      N1093   1.429       .  S
C1090      H1094   1.084       .  S
N1091      O1101   1.262       .  A
N1091      O1102   1.262       .  A
N1093      O1099   1.262       .  A
N1093      O1100   1.262       .  A
C1103      C2430   1.401       .  A
C1103      C1108   1.406       .  A
C1103      H1113   1.083       .  S
C1104      C1109   1.495   1_556  S
C1104      C2429   1.401   1_455  A
C1104      C1105   1.406       .  A
C1105      N1110   1.432       .  S
C1106      H1111   1.083       .  S
C1107      C2434   1.440       .  A
C1108      C2433   1.440       .  A
C1108      N1112   1.437       .  S
C1109      C1114   1.404       .  A
N1110      O1126   1.262       .  A
N1112      O1123   1.263       .  A
N1112      O1124   1.260       .  A
C1114      C1115   1.400       .  A
C1114      N1119   1.432       .  S
C1115      C1116   1.423       .  A
C1115      H1120   1.073       .  S
C1117      C1118   1.405       .  A
C1117      N1121   1.424       .  S
C1118      H1122   1.084       .  S
N1119      O1129   1.262   1_455  A
N1119      O1130   1.262       .  A
N1121      O2453   1.262       .  A
N1121      O1128   1.263       .  A
O1127      N2447   1.262       .  A
C1131      C1132   1.399       .  A
C1131      C1136   1.404       .  A
C1131      H1141   1.084       .  S
C1132      C1137   1.483       .  S
C1132      C1133   1.404       .  A
C1133      C1134   1.398       .  A
C1133      N1138   1.436       .  S
C1134      C1135   1.420       .  A
C1134      H1139   1.076       .  S
C1135      C1136   1.432       .  A
C1136      N1140   1.433       .  S
C1137      C1142   1.406       .  A
C1137      C1146   1.393       .  A
N1138      O1153   1.262       .  A
N1138      O1154   1.262       .  A
N1140      O1151   1.262       .  A
N1140      O1152   1.261       .  A
C1142      C1143   1.401       .  A
C1142      N1147   1.436       .  S
C1143      C1144   1.419       .  A
C1143      H1148   1.076       .  S
C1144      C1145   1.436       .  A
C1145      C1146   1.401       .  A
C1145      N1149   1.431       .  S
C1146      H1150   1.084       .  S
N1147      O1157   1.262       .  A
N1147      O1158   1.263       .  A
N1149      O1155   1.262       .  A
N1149      O1156   1.261       .  A
C1159      C1160   1.399       .  A
C1159      C1164   1.397       .  A
C1159      H1169   1.084       .  S
C1160      C1165   1.480       .  S
C1160      C1161   1.410       .  A
C1161      C1162   1.406       .  A
C1161      N1166   1.431       .  S
C1162      C1163   1.406       .  A
C1162      H1167   1.084       .  S
C1163      C1164   1.412       .  A
C1164      N1168   1.430       .  S
C1165      C1170   1.403       .  A
C1165      C1174   1.394       .  A
N1166      O1181   1.262       .  A
N1166      O1182   1.262       .  A
N1168      O1179   1.262       .  A
N1168      O1180   1.262       .  A
C1170      C1171   1.401       .  A
C1170      N2501   1.434       .  S
C1171      C1172   1.424       .  A
C1171      H2502   1.079       .  S
C1172      C1351   1.584   1_565  S
C1172      C1173   1.431       .  A
C1173      C1174   1.402       .  A
C1173      N1177   1.428       .  S
C1174      H1178   1.084       .  S
N1175      C2496   1.434   1_455  S
N1175      O1185   1.262   1_455  A
N1175      O2512   1.262       .  A
H1176      C2497   1.079   1_455  S
N1177      O1183   1.263       .  A
N1177      O1184   1.262       .  A
O1186      N2501   1.262       .  A
C1187      C1188   1.394       .  A
C1187      C1192   1.400       .  A
C1187      H1197   1.084       .  S
C1188      C1193   1.480       .  S
C1188      C1189   1.402       .  A
C1189      C1190   1.402       .  A
C1189      N1194   1.430       .  S
C1190      C1191   1.421       .  A
C1190      H1195   1.078       .  S
C1191      C1192   1.434       .  A
C1192      N1196   1.431       .  S
C1193      C1198   1.404       .  A
C1193      C1202   1.400       .  A
N1194      O1209   1.262       .  A
N1194      O1210   1.262       .  A
N1196      O1871   1.262       .  A
C1198      C1199   1.400       .  A
C1198      N1203   1.429       .  S
C1199      C1200   1.410       .  A
C1199      H1204   1.083       .  S
C1200      C1201   1.419       .  A
C1201      C1202   1.404       .  A
C1201      N1205   1.429       .  S
C1202      H1206   1.084       .  S
N1205      O1211   1.262       .  A
N1205      O1212   1.262       .  A
O1208      N1859   1.262   1_565  A
C1215      C1216   1.395       .  A
C1215      C1220   1.401       .  A
C1215      H1225   1.084       .  S
C1216      C1221   1.480       .  S
C1216      C1217   1.403       .  A
C1217      C1218   1.399       .  A
C1217      N1222   1.432       .  S
C1218      C1219   1.419       .  A
C1219      C2014   1.565       .  S
C1219      C1220   1.436       .  A
C1220      N2550   1.434       .  S
C1221      C1226   1.410       .  A
C1221      C1230   1.400       .  A
N1222      O1238   1.262       .  A
N1224      C2546   1.434   1_455  S
N1224      O1235   1.261       .  A
N1224      O1236   1.262       .  A
C1226      C1227   1.403       .  A
C1226      N1231   1.432       .  S
C1227      C1228   1.405       .  A
C1227      H1232   1.084       .  S
C1228      C1229   1.411       .  A
C1229      C1230   1.399       .  A
C1229      N1233   1.428       .  S
C1230      H1234   1.084       .  S
N1231      O1241   1.262       .  A
N1231      O1242   1.262       .  A
N1233      O1239   1.262       .  A
N1233      O1240   1.262       .  A
C1243      C1244   1.398       .  A
C1243      C1248   1.398       .  A
C1243      H1253   1.084       .  S
C1244      C1249   1.482       .  S
C1244      C1245   1.407       .  A
C1245      C1246   1.404       .  A
C1245      N1250   1.429       .  S
C1246      C1247   1.410       .  A
C1246      H1251   1.083       .  S
C1247      C1248   1.420       .  A
C1248      N1252   1.429       .  S
C1249      C1254   1.403       .  A
C1249      C1258   1.396       .  A
N1250      O1265   1.262       .  A
N1250      O1266   1.262       .  A
N1252      O1263   1.262       .  A
N1252      O1264   1.262       .  A
C1254      C1255   1.399       .  A
C1254      N1259   1.431       .  S
C1255      C1256   1.418       .  A
C1255      H1260   1.077       .  S
C1256      C1257   1.435       .  A
C1257      C1258   1.402       .  A
C1257      N1261   1.432       .  S
C1258      H1262   1.084       .  S
N1259      O1269   1.262       .  A
N1259      O1270   1.262       .  A
N1261      O1267   1.262       .  A
N1261      O1268   1.262       .  A
C1271      C1272   1.396       .  A
C1271      C2602   1.395   1_455  A
C1271      H1281   1.085       .  S
C1272      C1277   1.476       .  S
C1272      C2599   1.406   1_455  A
C1273      C2598   1.406       .  A
C1273      C1274   1.405       .  A
C1273      N1278   1.428       .  S
C1274      C1275   1.410       .  A
C1274      H1279   1.083       .  S
C1275      C1276   1.415       .  A
C1276      C2597   1.395       .  A
C1276      N1280   1.427       .  S
C1277      C1282   1.400       .  A
C1277      C1286   1.396       .  A
N1278      O1293   1.262       .  A
N1278      O2620   1.262       .  A
N1280      O2617   1.262       .  A
N1280      O1292   1.261       .  A
C1282      C1283   1.396       .  A
C1282      N1287   1.430       .  S
C1283      C1284   1.419       .  A
C1283      H1288   1.078       .  S
C1284      C1285   1.433       .  A
C1285      C1286   1.404       .  A
C1285      N1289   1.431       .  S
C1286      H1290   1.084       .  S
N1287      O1297   1.262       .  A
N1287      O1298   1.261       .  A
N1289      O1295   1.262       .  A
N1289      O1296   1.262       .  A
O1291      N2606   1.262       .  A
O1294      N2604   1.262       .  A
C1299      C1304   1.405       .  A
C1299      H1309   1.083       .  S
C1300      C1305   1.499       .  S
C1301      C1302   1.401       .  A
C1302      C1303   1.400       .  A
C1302      H1307   1.084       .  S
C1303      C1304   1.409       .  A
C1304      N1308   1.429       .  S
C1305      C1310   1.412       .  A
C1305      C1314   1.400       .  A
N1306      O1321   1.262       .  A
N1306      O1322   1.262       .  A
N1308      O1319   1.262       .  A
N1308      O1320   1.262       .  A
C1310      C1311   1.407       .  A
C1310      N1315   1.432       .  S
C1311      C1312   1.417       .  A
C1311      H1316   1.078       .  S
C1312      C1313   1.433       .  A
C1313      C1314   1.398       .  A
C1313      N1317   1.432       .  S
C1314      H1318   1.084       .  S
N1315      O1325   1.262       .  A
N1317      O1323   1.262       .  A
N1317      O1324   1.262       .  A
O1327      C1343   1.276       .  A
O1327     Zn1333   2.041       .  S
C1328      O1344   1.276       .  A
C1328      O1341   1.276       .  A
C1328      C1891   1.487       .  S
O1329      C1342   1.275       .  A
O1329     Cd1336   2.076       .  S
O1330      C1348   1.276       .  A
O1330     Cd1339   2.074       .  S
O1331      C1345   1.275       .  A
O1331     Cd1335   2.072       .  S
O1332      C1343   1.274       .  A
O1332     Cd1335   2.064       .  S
Zn1333     O1344   2.030       .  S
Zn1333     O1346   2.012       .  S
Zn1333     O1338   1.949       .  S
O1334      C1345   1.276       .  A
O1334     Cd1339   2.079       .  S
Cd1335     O1337   2.050       .  S
Cd1335     O1338   1.992       .  S
Cd1336     O1340   2.095       .  S
Cd1336     O1349   2.087       .  S
Cd1336     O1338   2.019       .  S
O1337      C1347   1.271       .  A
O1338     Cd1339   2.002       .  S
Cd1339     O1341   2.076       .  S
O1340      C1347   1.278       .  A
C1342      O1346   1.274       .  A
C1342      C1938   1.485       .  S
C1343      C1826   1.480       .  S
C1345      C1863   1.484       .  S
C1347      C1910   1.493       .  S
C1348      O1349   1.277       .  A
C1348      C1966   1.482       .  S
C1350      C1798   1.569       .  S
C1350      C1919   1.569       .  S
C1350      C1947   1.569       .  S
C1350      C1975   1.571       .  S
C1351      C1770   1.570       .  S
C1351      C1854   1.578       .  S
O1352      C1368   1.275       .  A
C1353      O1369   1.276   1_545  A
C1353      O1366   1.273       .  A
C1353      C1602   1.488       .  S
O1354      C1367   1.276       .  A
O1354     Cd1361   2.081       .  S
O1355      C1373   1.275       .  A
O1355     Cd1364   2.063       .  S
O1356      C1370   1.275   1_565  A
O1356     Cd2023   2.071       .  S
O1357      C1368   1.273       .  A
O1357     Cd1360   2.056       .  S
Zn1358     O2032   2.029       .  S
Zn1358     O1371   2.022       .  S
Zn1358     O1363   1.948       .  S
O1359      C1370   1.273       .  A
Cd1360     O2019   2.077       .  S
Cd1360     O1362   2.060       .  S
Cd1361     O2037   2.091       .  S
Cd1361     O1363   2.010       .  S
O1362      C1372   1.274       .  A
O1363     Cd2027   1.989       .  S
Cd1364     O1366   2.063       .  S
Cd1364     O2026   1.988   1_545  S
O1365      C1372   1.277       .  A
C1367      O1371   1.275       .  A
C1367      C1751   1.484       .  S
C1368      C1630   1.481       .  S
O1369     Zn2021   2.026       .  S
C1370      C1658   1.487       .  S
C1372      C1686   1.477       .  S
C1373      O1374   1.279       .  A
C1373      C1714   1.497       .  S
O1374     Cd2024   2.097   1_545  S
C1375      C1574   1.570       .  S
C1375      C1611   1.570       .  S
C1375      C1639   1.566       .  S
C1375      C1667   1.575       .  S
C1376      C1695   1.563       .  S
C1376      C1723   1.592       .  S
C1376      C1742   1.578       .  S
C1376      C1807   1.571       .  S
O1377      C1393   1.274       .  A
O1377     Zn1383   2.013       .  S
C1378      O1394   1.274       .  A
C1378      O1391   1.275       .  A
C1378      C1462   1.477       .  S
O1379      C1392   1.277       .  A
O1379     Cd1386   2.088       .  S
O1380      C1398   1.273       .  A
O1380     Cd1389   2.053       .  S
O1381      C1395   1.276       .  A
O1381     Cd1385   2.081       .  S
O1382      C1393   1.276       .  A
O1382     Cd1385   2.077       .  S
Zn1383     O1394   2.028       .  S
Zn1383     O1396   2.022       .  S
Zn1383     O1388   1.950       .  S
O1384      C1395   1.277       .  A
O1384     Cd1389   2.082       .  S
Cd1385     O1387   2.082       .  S
Cd1385     O1388   2.000       .  S
Cd1386     O1390   2.091       .  S
Cd1386     O1399   2.079       .  S
Cd1386     O1388   2.015       .  S
O1387      C1397   1.278       .  A
O1388     Cd1389   1.998       .  S
Cd1389     O1391   2.076       .  S
O1390      C1397   1.277       .  A
C1392      O1396   1.276       .  A
C1392      C1518   1.494       .  S
C1393      C1415   1.482       .  S
C1395      C1443   1.498       .  S
C1397      C1499   1.487       .  S
C1398      O1399   1.276       .  A
C1398      C1546   1.481       .  S
C1400      C1434   1.591   1_565  S
C1400      C2134   1.599       .  S
C1400      C1779   1.593       .  S
C1401      C1490   1.578       .  S
C1401      C1527   1.582       .  S
C1401      C1555   1.562       .  S
C1401      C1583   1.572       .  S
C1402      C1403   1.395       .  A
C1402      C1407   1.408       .  A
C1402      H1412   1.090       .  S
C1403      C1408   1.482       .  S
C1403      C1404   1.396       .  A
C1404      C1405   1.392       .  A
C1404      N1409   1.430       .  S
C1405      C1406   1.421       .  A
C1405      H1410   1.086       .  S
C1406      C1407   1.439       .  A
C1407      N2074   1.428       .  S
C1408      C1413   1.410       .  A
C1408      C1417   1.403       .  A
N1409      O1424   1.263       .  A
N1409      O1425   1.261       .  A
N1411      C2070   1.426   1_545  S
N1411      O1422   1.262       .  A
N1411      O1423   1.264       .  A
C1413      C1414   1.400       .  A
C1413      N1418   1.431       .  S
C1414      C1415   1.405       .  A
C1414      H1419   1.084       .  S
C1415      C1416   1.413       .  A
C1416      C1417   1.401       .  A
C1416      N1420   1.431       .  S
C1417      H1421   1.084       .  S
N1418      O2091   1.262       .  A
N1418      O2092   1.262       .  A
N1420      O1426   1.262       .  A
N1420      O1427   1.262       .  A
O1428      N2081   1.262   1_545  A
O1429      N2081   1.262       .  A
C1430      C1431   1.395       .  A
C1430      C1435   1.407       .  A
C1430      H1440   1.084       .  S
C1431      C1436   1.483       .  S
C1431      C1432   1.397       .  A
C1432      C1433   1.398       .  A
C1432      N1437   1.429       .  S
C1433      C1434   1.422       .  A
C1433      H1438   1.076       .  S
C1434      C1435   1.434       .  A
C1435      N1439   1.428       .  S
C1436      C1441   1.405       .  A
C1436      C1445   1.400       .  A
N1437      O1452   1.262       .  A
N1437      O1453   1.262       .  A
N1439      O1450   1.262   1_545  A
N1439      O1451   1.263       .  A
C1441      C1442   1.402       .  A
C1441      N1446   1.429       .  S
C1442      C1443   1.410       .  A
C1442      H1447   1.083       .  S
C1443      C1444   1.420       .  A
C1444      C1445   1.404       .  A
C1444      N1448   1.429       .  S
C1445      H1449   1.084       .  S
N1446      O1456   1.262       .  A
N1446      O1457   1.262       .  A
N1448      O1454   1.262       .  A
N1448      O1455   1.262       .  A
C1458      C1459   1.407       .  A
C1458      C1463   1.400       .  A
C1458      H1468   1.083       .  S
C1459      C1464   1.493       .  S
C1459      C1460   1.414       .  A
C1460      C1461   1.407       .  A
C1460      N1465   1.433       .  S
C1461      C1462   1.403       .  A
C1461      H1466   1.084       .  S
C1462      C1463   1.407       .  A
C1463      N1467   1.430       .  S
C1464      C1469   1.401       .  A
C1464      C1473   1.401       .  A
N1465      O1480   1.262       .  A
N1465      O1481   1.262       .  A
N1467      O1478   1.262       .  A
N1467      O1479   1.262       .  A
C1469      C1470   1.398       .  A
C1469      N1474   1.433       .  S
C1470      C1471   1.420       .  A
C1471      C2063   1.598       .  S
C1471      C1472   1.432       .  A
C1472      C1473   1.411       .  A
C1472      N2139   1.430       .  S
C1473      H1477   1.079       .  S
N1474      O1485   1.262       .  A
N1476      C2135   1.431   1_545  S
N1476      O1482   1.263       .  A
N1476      O1483   1.262       .  A
C1486      C1487   1.398       .  A
C1486      C1491   1.396       .  A
C1486      H1496   1.084       .  S
C1487      C1492   1.499       .  S
C1487      C1488   1.410       .  A
C1488      C1489   1.409       .  A
C1488      N1493   1.431       .  S
C1489      C1490   1.420       .  A
C1489      H1494   1.078       .  S
C1490      C1491   1.434       .  A
C1491      N1495   1.433       .  S
C1492      C1497   1.416       .  A
C1492      C1501   1.407       .  A
N1493      O1508   1.262       .  A
N1493      O1509   1.262       .  A
N1495      O1506   1.262       .  A
N1495      O1507   1.262       .  A
C1497      C1498   1.402       .  A
C1497      N1502   1.434       .  S
C1498      C1499   1.402       .  A
C1498      H1503   1.084       .  S
C1499      C1500   1.413       .  A
C1500      C1501   1.407       .  A
C1500      N1504   1.429       .  S
C1501      H1505   1.083       .  S
N1502      O1512   1.262       .  A
N1502      O1513   1.262       .  A
N1504      O1510   1.262       .  A
N1504      O1511   1.262       .  A
C1514      C2178   1.400       .  A
C1514      C1519   1.404       .  A
C1514      H1524   1.084       .  S
C1515      C1520   1.479       .  S
C1515      C2177   1.399   1_545  A
C1515      C1516   1.408       .  A
C1516      C2180   1.400   1_545  A
C1516      N1521   1.432       .  S
C1517      C2179   1.401       .  A
C1517      C1518   1.409       .  A
C1517      H1522   1.083       .  S
C1518      C1519   1.417       .  A
C1519      N1523   1.428       .  S
C1520      C1525   1.401       .  A
C1520      C1529   1.393       .  A
N1521      O1536   1.262       .  A
N1521      O1537   1.262       .  A
N1523      O1534   1.262       .  A
N1523      O1535   1.262       .  A
C1525      C1526   1.399       .  A
C1525      N1530   1.432       .  S
C1526      C1527   1.422       .  A
C1526      H1531   1.079       .  S
C1527      C1528   1.434       .  A
C1528      C1529   1.403       .  A
C1528      N1532   1.428       .  S
C1529      H1533   1.084       .  S
N1530      O1540   1.262       .  A
N1530      O1541   1.262       .  A
N1532      O1538   1.262       .  A
N1532      O1539   1.263       .  A
C1542      C1543   1.400   1_455  A
C1542      H1552   1.084       .  S
C1543      C1548   1.473       .  S
C1544      C1545   1.397       .  A
C1544      N1549   1.429       .  S
C1545      C1546   1.407       .  A
C1545      H1550   1.084       .  S
C1546      C1547   1.414       .  A
C1547      N1551   1.428       .  S
C1548      C1553   1.399       .  A
C1548      C1557   1.393       .  A
N1549      O1564   1.262       .  A
N1551      O1562   1.262       .  A
N1551      O1563   1.262       .  A
C1553      C1554   1.396       .  A
C1553      N1558   1.429       .  S
C1554      C1555   1.418       .  A
C1554      H1559   1.076       .  S
C1555      C1556   1.438       .  A
C1556      C1557   1.401       .  A
C1556      N1560   1.435       .  S
C1557      H1561   1.084       .  S
N1558      O1568   1.262       .  A
N1558      O1569   1.262       .  A
N1560      O1566   1.261       .  A
N1560      O1567   1.262       .  A
C1570      C1571   1.397       .  A
C1570      C1575   1.400       .  A
C1570      H1580   1.084       .  S
C1571      C1576   1.491       .  S
C1571      C1572   1.408       .  A
C1572      C1573   1.404       .  A
C1572      N1577   1.432       .  S
C1573      C1574   1.417       .  A
C1573      H1578   1.078       .  S
C1574      C1575   1.434       .  A
C1575      N1579   1.432       .  S
C1576      C1581   1.404       .  A
C1576      C1585   1.398       .  A
N1577      O1592   1.262       .  A
N1577      O1593   1.262       .  A
N1579      O1590   1.262       .  A
N1579      O1591   1.262       .  A
C1581      C1582   1.399       .  A
C1581      N1586   1.430       .  S
C1582      C1583   1.418       .  A
C1582      H1587   1.083       .  S
C1583      C1584   1.444       .  A
C1584      C1585   1.407       .  A
C1584      N1588   1.436       .  S
C1585      H1589   1.084       .  S
N1586      O1596   1.262       .  A
N1586      O1597   1.262       .  A
N1588      O1594   1.260       .  A
N1588      O1595   1.263       .  A
C1598      C1599   1.400       .  A
C1598      C1603   1.401       .  A
C1598      H1608   1.084       .  S
C1599      C1604   1.479       .  S
C1599      C1600   1.407       .  A
C1600      C1601   1.400       .  A
C1600      N1605   1.430       .  S
C1601      C1602   1.407       .  A
C1601      H1606   1.084       .  S
C1602      C1603   1.417       .  A
C1603      N1607   1.429       .  S
C1604      C1609   1.401       .  A
C1604      C1613   1.393       .  A
N1605      O1620   1.262       .  A
N1605      O1621   1.262       .  A
N1607      O1618   1.262       .  A
N1607      O1619   1.262       .  A
C1609      C1610   1.402       .  A
C1609      N1614   1.429       .  S
C1610      C1611   1.420       .  A
C1610      H1615   1.079       .  S
C1611      C1612   1.435       .  A
C1612      C1613   1.397       .  A
C1612      N1616   1.432       .  S
C1613      H1617   1.084       .  S
N1614      O1624   1.262       .  A
N1614      O1625   1.262       .  A
N1616      O1622   1.262       .  A
N1616      O1623   1.262       .  A
C1626      C1627   1.400       .  A
C1626      C1631   1.398       .  A
C1626      H1636   1.084       .  S
C1627      C1632   1.480       .  S
C1627      C1628   1.410       .  A
C1628      C1629   1.401       .  A
C1628      N1633   1.430       .  S
C1629      C1630   1.405       .  A
C1629      H1634   1.084       .  S
C1630      C1631   1.414       .  A
C1631      N1635   1.430       .  S
C1632      C1637   1.404       .  A
C1632      C1641   1.397       .  A
N1633      O1648   1.262       .  A
N1633      O1649   1.262       .  A
N1635      O1646   1.262       .  A
N1635      O1647   1.262       .  A
C1637      C1638   1.396       .  A
C1637      N1642   1.429       .  S
C1638      C1639   1.415       .  A
C1638      H1643   1.080       .  S
C1639      C1640   1.432       .  A
C1640      C1641   1.401       .  A
C1640      N1644   1.432       .  S
C1641      H1645   1.084       .  S
N1642      O1652   1.262       .  A
N1642      O1653   1.262       .  A
N1644      O1650   1.262       .  A
N1644      O1651   1.262       .  A
C1654      C1655   1.402       .  A
C1654      C1659   1.398       .  A
C1654      H1664   1.084       .  S
C1655      C1660   1.487       .  S
C1655      C1656   1.411       .  A
C1656      C1657   1.402       .  A
C1656      N1661   1.430       .  S
C1657      C1658   1.407       .  A
C1657      H1662   1.084       .  S
C1658      C1659   1.415       .  A
C1660      C1665   1.403       .  A
C1660      C1669   1.400       .  A
N1661      O1676   1.262   1_545  A
N1661      O1677   1.262       .  A
N1663      O1674   1.262       .  A
N1663      O1675   1.261       .  A
C1665      C1666   1.394       .  A
C1665      N1670   1.432       .  S
C1666      C1667   1.420       .  A
C1666      H1671   1.076       .  S
C1667      C1668   1.434       .  A
C1668      C1669   1.405       .  A
C1668      N1672   1.432       .  S
C1669      H1673   1.083       .  S
N1670      O1680   1.262       .  A
N1670      O1681   1.262       .  A
N1672      O1678   1.262       .  A
N1672      O1679   1.262       .  A
C1682      C1683   1.405       .  A
C1682      C1687   1.398       .  A
C1682      H1692   1.084       .  S
C1683      C1688   1.490       .  S
C1683      C1684   1.415       .  A
C1684      C1685   1.402       .  A
C1684      N1689   1.431       .  S
C1685      C1686   1.402       .  A
C1685      H1690   1.084       .  S
C1686      C1687   1.411       .  A
C1687      N1691   1.430       .  S
C1688      C1693   1.406       .  A
C1688      C1697   1.400       .  A
N1689      O1704   1.262       .  A
N1689      O1705   1.262       .  A
N1691      O1702   1.262       .  A
N1691      O1703   1.262       .  A
C1693      C1694   1.394       .  A
C1693      N1698   1.434       .  S
C1694      C1695   1.419       .  A
C1694      H1699   1.083       .  S
C1695      C1696   1.439       .  A
C1696      C1697   1.407       .  A
C1696      N1700   1.437       .  S
C1697      H1701   1.084       .  S
N1698      O1708   1.262       .  A
N1698      O1709   1.262       .  A
N1700      O1706   1.260       .  A
N1700      O1707   1.263       .  A
C1710      C1711   1.403       .  A
C1710      C1715   1.404       .  A
C1710      H1720   1.084       .  S
C1711      C1716   1.489       .  S
C1711      C1712   1.412       .  A
C1712      C1713   1.402       .  A
C1712      N1717   1.436       .  S
C1713      C1714   1.410       .  A
C1713      H1718   1.083       .  S
C1714      C1715   1.416       .  A
C1715      N1719   1.429       .  S
C1716      C1721   1.407       .  A
C1716      C1725   1.394       .  A
N1717      O1732   1.262       .  A
N1717      O1733   1.262       .  A
N1719      O1730   1.262       .  A
N1719      O1731   1.262       .  A
C1721      C1722   1.404       .  A
C1721      N1726   1.437       .  S
C1722      C1723   1.424       .  A
C1722      H1727   1.076       .  S
C1723      C1724   1.435       .  A
C1724      C1725   1.402       .  A
C1724      N1728   1.428       .  S
C1725      H1729   1.084       .  S
N1726      O1736   1.262       .  A
N1726      O1737   1.263       .  A
N1728      O1734   1.262       .  A
N1728      O1735   1.262       .  A
C1738      C1739   1.393       .  A
C1738      C1743   1.403       .  A
C1738      H1748   1.084       .  S
C1739      C1744   1.478       .  S
C1739      C1740   1.398       .  A
C1740      C1741   1.399       .  A
C1740      N1745   1.428       .  S
C1741      C1742   1.423       .  A
C1741      H1746   1.083       .  S
C1742      C1743   1.443       .  A
C1743      N1747   1.434       .  S
C1744      C1749   1.409       .  A
C1744      C1753   1.399       .  A
N1745      O1760   1.262       .  A
N1745      O1761   1.262       .  A
N1747      O1758   1.260       .  A
N1747      O1759   1.263       .  A
C1749      C1750   1.405       .  A
C1749      N1754   1.430       .  S
C1750      C1751   1.407       .  A
C1750      H1755   1.084       .  S
C1751      C1752   1.414       .  A
C1752      C1753   1.399       .  A
C1752      N1756   1.429       .  S
C1753      H1757   1.084       .  S
N1754      O1764   1.262       .  A
N1754      O1765   1.262       .  A
N1756      O1762   1.262       .  A
N1756      O1763   1.262       .  A
C1766      C1771   1.407       .  A
C1766      H1776   1.083       .  S
C1767      C1772   1.495   1_556  S
C1767      C1768   1.406   1_545  A
C1768      C2432   1.397       .  A
C1768      N1773   1.432       .  S
C1769      C2431   1.397       .  A
C1769      C2433   1.418       .  A
C1769      H1774   1.083       .  S
C1770      C2432   1.418   1_545  A
C1771      N1775   1.437       .  S
C1772      C1777   1.403       .  A
C1772      C2444   1.397   1_545  A
N1773      O2451   1.262       .  A
N1773      O1789   1.262   1_565  A
N1775      O1786   1.263       .  A
N1775      O1787   1.260       .  A
C1777      C1778   1.400       .  A
C1777      N1782   1.431       .  S
C1778      C1779   1.424   1_545  A
C1778      H1783   1.074       .  S
C1779      C2443   1.433       .  A
C1780      C2442   1.433       .  A
C1780      C1781   1.405       .  A
C1780      N1784   1.424       .  S
C1781      C2435   1.396       .  A
C1781      H1785   1.084       .  S
N1782      O1792   1.262       .  A
N1782      O1793   1.262       .  A
N1784      O1791   1.263       .  A
O1788      N2436   1.262       .  A
C1794      C1795   1.398       .  A
C1794      C1799   1.401       .  A
C1794      H1804   1.084       .  S
C1795      C1800   1.482       .  S
C1795      C1796   1.404       .  A
C1796      C1797   1.399       .  A
C1796      N1801   1.436       .  S
C1797      C1798   1.421       .  A
C1797      H1802   1.077       .  S
C1798      C1799   1.431       .  A
C1799      N1803   1.432       .  S
C1800      C1805   1.406       .  A
C1800      C1809   1.392       .  A
N1801      O1816   1.262       .  A
N1801      O1817   1.263       .  A
N1803      O1814   1.263       .  A
N1803      O1815   1.261       .  A
C1805      C1806   1.403       .  A
C1805      N1810   1.435       .  S
C1806      C1807   1.420       .  A
C1806      H1811   1.076       .  S
C1807      C1808   1.436       .  A
C1808      C1809   1.398       .  A
C1808      N1812   1.430       .  S
C1809      H1813   1.085       .  S
N1810      O1820   1.262       .  A
N1810      O1821   1.263       .  A
N1812      O1818   1.262       .  A
N1812      O1819   1.262       .  A
C1822      C1823   1.398       .  A
C1822      C1827   1.398       .  A
C1822      H1832   1.084       .  S
C1823      C1828   1.480       .  S
C1823      C1824   1.410       .  A
C1824      C1825   1.406       .  A
C1824      N1829   1.431       .  S
C1825      C1826   1.405       .  A
C1825      H1830   1.084       .  S
C1826      C1827   1.412       .  A
C1827      N1831   1.429       .  S
C1828      C1833   1.401       .  A
C1828      C1837   1.394       .  A
N1829      O1844   1.262       .  A
N1829      O1845   1.262       .  A
N1831      O1842   1.262       .  A
N1831      O1843   1.261       .  A
C1833      C1834   1.400       .  A
C1834      C1835   1.424       .  A
C1835      C1836   1.433       .  A
C1836      C1837   1.403       .  A
C1836      N1840   1.428       .  S
C1837      H1841   1.084       .  S
N1838      O1848   1.262       .  A
N1840      O1846   1.263       .  A
N1840      O1847   1.262       .  A
C1850      C1851   1.397       .  A
C1850      C1855   1.398       .  A
C1850      H1860   1.084       .  S
C1851      C1856   1.487       .  S
C1851      C1852   1.408       .  A
C1852      C1853   1.406       .  A
C1852      N1857   1.435       .  S
C1853      C1854   1.421       .  A
C1853      H1858   1.077       .  S
C1854      C1855   1.433       .  A
C1855      N1859   1.432       .  S
C1856      C1861   1.415       .  A
C1856      C1865   1.402       .  A
N1857      O1872   1.262       .  A
N1857      O1873   1.262       .  A
N1859      O2533   1.262       .  A
C1861      C1862   1.407       .  A
C1861      N1866   1.434       .  S
C1862      C1863   1.406       .  A
C1862      H1867   1.084       .  S
C1863      C1864   1.413       .  A
C1864      C1865   1.399       .  A
C1864      N1868   1.432       .  S
C1865      H1869   1.084       .  S
N1866      O2539   1.262       .  A
N1866      O2540   1.262       .  A
N1868      O1874   1.263       .  A
N1868      O1875   1.262       .  A
O1870      N2522   1.262       .  A
O1876      N2529   1.262       .  A
O1877      N2529   1.262       .  A
C1878      C1879   1.397       .  A
C1878      C1883   1.403       .  A
C1878      H1888   1.084       .  S
C1879      C1884   1.486       .  S
C1879      C1880   1.406       .  A
C1880      C1881   1.402       .  A
C1880      N1885   1.434       .  S
C1881      C1882   1.419       .  A
C1881      H2549   1.075   1_545  S
C1882      C1883   1.435       .  A
C1884      C1889   1.413       .  A
C1884      C1893   1.401       .  A
N1885      O2563   1.262       .  A
N1885      O1901   1.262   1_545  A
H1886      C2544   1.075       .  S
N1887      O1898   1.261       .  A
N1887      O1899   1.262       .  A
C1889      C1890   1.405       .  A
C1889      N1894   1.434       .  S
C1890      C1891   1.406       .  A
C1890      H1895   1.084       .  S
C1891      C1892   1.413       .  A
C1892      C1893   1.400       .  A
C1892      N1896   1.427       .  S
C1893      H1897   1.084       .  S
N1894      O1904   1.262       .  A
N1894      O1905   1.262       .  A
N1896      O1902   1.262       .  A
N1896      O1903   1.261       .  A
O1900      N2548   1.262       .  A
C1906      C1907   1.397       .  A
C1906      C1911   1.396       .  A
C1906      H1916   1.084       .  S
C1907      C1912   1.479       .  S
C1907      C1908   1.407       .  A
C1908      C1909   1.404       .  A
C1908      N1913   1.429       .  S
C1909      C1910   1.409       .  A
C1909      H1914   1.083       .  S
C1910      C1911   1.420       .  A
C1911      N1915   1.428       .  S
C1912      C1917   1.404       .  A
C1912      C1921   1.395       .  A
N1913      O1928   1.262       .  A
N1913      O1929   1.262       .  A
N1915      O1926   1.261       .  A
N1915      O1927   1.261       .  A
C1917      C1918   1.398       .  A
C1917      N1922   1.430       .  S
C1918      C1919   1.417       .  A
C1918      H1923   1.078       .  S
C1919      C1920   1.434       .  A
C1920      C1921   1.400       .  A
C1920      N1924   1.432       .  S
C1921      H1925   1.084       .  S
N1922      O1932   1.262       .  A
N1922      O1933   1.262       .  A
N1924      O1930   1.262       .  A
N1924      O1931   1.262       .  A
C1934      C1935   1.395       .  A
C1934      H1944   1.085       .  S
C1935      C1940   1.472       .  S
C1936      C1937   1.404       .  A
C1936      N1941   1.428       .  S
C1937      C1938   1.410       .  A
C1937      H1942   1.083       .  S
C1938      C1939   1.415       .  A
C1939      N1943   1.427       .  S
C1940      C1945   1.399       .  A
C1940      C1949   1.395       .  A
N1941      O1956   1.262       .  A
N1943      O1955   1.261       .  A
C1945      C1946   1.395       .  A
C1945      N1950   1.429       .  S
C1946      C1947   1.418       .  A
C1946      H1951   1.079       .  S
C1947      C1948   1.433       .  A
C1948      C1949   1.402       .  A
C1948      N1952   1.431       .  S
C1949      H1953   1.084       .  S
N1950      O1960   1.262       .  A
N1950      O1961   1.261       .  A
N1952      O1958   1.262       .  A
N1952      O1959   1.262       .  A
C1962      C2626   1.408   1_545  A
C1962      C1967   1.405       .  A
C1962      H1972   1.083       .  S
C1963      C1968   1.495       .  S
C1963      C2625   1.408       .  A
C1963      C2627   1.416       .  A
C1964      C2626   1.418       .  A
C1964      C1965   1.402   1_565  A
C1964      N2632   1.435       .  S
C1965      C1966   1.401       .  A
C1965      H1970   1.084       .  S
C1966      C1967   1.410       .  A
C1967      N1971   1.429       .  S
C1968      C1973   1.409       .  A
C1968      C1977   1.398       .  A
N1969      C2627   1.433       .  S
N1969      O1984   1.262       .  A
N1969      O1985   1.262       .  A
N1971      O1982   1.262       .  A
N1971      O1983   1.262       .  A
C1973      C1974   1.406       .  A
C1973      N1978   1.430       .  S
C1974      C1975   1.417       .  A
C1974      H1979   1.079       .  S
C1975      C1976   1.433       .  A
C1976      C1977   1.399       .  A
C1976      N1980   1.432       .  S
C1977      H1981   1.084       .  S
N1978      O1988   1.262       .  A
N1978      O2652   1.262       .  A
N1980      O1986   1.262       .  A
N1980      O1987   1.262       .  A
O1989      N2641   1.262       .  A
O1990      C2006   1.276       .  A
O1990     Zn1996   2.036       .  S
C1991      O2007   1.275       .  A
C1991      O2004   1.274       .  A
C1991      C2554   1.480       .  S
O1992      C2005   1.276       .  A
O1992     Cd1999   2.082       .  S
O1993      C2011   1.274       .  A
O1993     Cd2002   2.067       .  S
O1994      C2008   1.275       .  A
O1994     Cd1998   2.083       .  S
O1995      C2006   1.274       .  A
O1995     Cd1998   2.064       .  S
Zn1996     O2007   2.025       .  S
Zn1996     O2009   2.015       .  S
Zn1996     O2001   1.949       .  S
O1997      C2008   1.275       .  A
O1997     Cd2002   2.070       .  S
Cd1998     O2000   2.057       .  S
Cd1998     O2001   1.996       .  S
Cd1999     O2003   2.096       .  S
Cd1999     O2012   2.092       .  S
Cd1999     O2001   2.017       .  S
O2000      C2010   1.273       .  A
O2001     Cd2002   1.998       .  S
Cd2002     O2004   2.068       .  S
O2003      C2010   1.279       .  A
C2005      O2009   1.274       .  A
C2005      C2601   1.488       .  S
C2006      C2489   1.481       .  S
C2008      C2526   1.495       .  S
C2010      C2573   1.495       .  S
C2011      O2012   1.278       .  A
C2011      C2629   1.477       .  S
C2013      C2461   1.572       .  S
C2013      C2582   1.572       .  S
C2013      C2610   1.572       .  S
C2013      C2638   1.573       .  S
C2014      C2433   1.570       .  S
C2014      C2517   1.578       .  S
O2015      C2031   1.275       .  A
C2016      O2032   1.277       .  A
C2016      O2029   1.273       .  A
C2016      C2265   1.487       .  S
O2017      C2030   1.277       .  A
O2017     Cd2024   2.084       .  S
O2018      C2036   1.275       .  A
O2018     Cd2027   2.065       .  S
O2019      C2033   1.275       .  A
O2020      C2031   1.271       .  A
O2020     Cd2023   2.051       .  S
Zn2021     O2034   2.013       .  S
Zn2021     O2026   1.943       .  S
O2022      C2033   1.274       .  A
Cd2023     O2025   2.057       .  S
Cd2024     O2026   2.013       .  S
O2025      C2035   1.273       .  A
Cd2027     O2029   2.060       .  S
O2028      C2035   1.277       .  A
C2030      O2034   1.275       .  A
C2030      C2414   1.490       .  S
C2031      C2293   1.483       .  S
C2033      C2321   1.486       .  S
C2035      C2349   1.474       .  S
C2036      O2037   1.277       .  A
C2036      C2377   1.495       .  S
C2038      C2237   1.571       .  S
C2038      C2274   1.570       .  S
C2038      C2302   1.567       .  S
C2038      C2330   1.576       .  S
C2039      C2358   1.566       .  S
C2039      C2386   1.591       .  S
C2039      C2405   1.577       .  S
C2039      C2470   1.571       .  S
O2040      C2056   1.274       .  A
O2040     Zn2046   2.014       .  S
C2041      O2057   1.273       .  A
C2041      O2054   1.275       .  A
C2041      C2125   1.475       .  S
O2042      C2055   1.275       .  A
O2042     Cd2049   2.079       .  S
O2043      C2061   1.274       .  A
O2043     Cd2052   2.057       .  S
O2044      C2058   1.275       .  A
O2044     Cd2048   2.072       .  S
O2045      C2056   1.275       .  A
O2045     Cd2048   2.069       .  S
Zn2046     O2057   2.025       .  S
Zn2046     O2059   2.016       .  S
Zn2046     O2051   1.945       .  S
O2047      C2058   1.278       .  A
O2047     Cd2052   2.085       .  S
Cd2048     O2050   2.074       .  S
Cd2048     O2051   1.995       .  S
Cd2049     O2053   2.084       .  S
Cd2049     O2062   2.072       .  S
Cd2049     O2051   2.012       .  S
O2050      C2060   1.276       .  A
O2051     Cd2052   1.997       .  S
Cd2052     O2054   2.080       .  S
O2053      C2060   1.276       .  A
C2055      O2059   1.275       .  A
C2055      C2181   1.493       .  S
C2056      C2078   1.478       .  S
C2058      C2106   1.494       .  S
C2060      C2162   1.484       .  S
C2061      O2062   1.275       .  A
C2061      C2209   1.478       .  S
C2063      C2097   1.590       .  S
C2063      C2442   1.593       .  S
C2064      C2153   1.577       .  S
C2064      C2190   1.585       .  S
C2064      C2218   1.564       .  S
C2064      C2246   1.572       .  S
C2065      C2066   1.393       .  A
C2065      C2070   1.406       .  A
C2065      H2075   1.095       .  S
C2066      C2071   1.477       .  S
C2066      C2067   1.394       .  A
C2067      C2068   1.392       .  A
C2067      N2072   1.429       .  S
C2068      C2069   1.422       .  A
C2068      H2073   1.096       .  S
C2069      C2070   1.439       .  A
C2071      C2076   1.409       .  A
C2071      C2080   1.402       .  A
N2072      O2087   1.263       .  A
N2072      O2088   1.262       .  A
N2074      O2085   1.262       .  A
N2074      O2086   1.263       .  A
C2076      C2077   1.399       .  A
C2076      N2081   1.431       .  S
C2077      C2078   1.404       .  A
C2077      H2082   1.084       .  S
C2078      C2079   1.412       .  A
C2079      C2080   1.401       .  A
C2079      N2083   1.430       .  S
C2080      H2084   1.085       .  S
N2083      O2089   1.262       .  A
N2083      O2090   1.262       .  A
C2093      C2094   1.394       .  A
C2093      C2098   1.406       .  A
C2093      H2103   1.084       .  S
C2094      C2099   1.480       .  S
C2094      C2095   1.397       .  A
C2095      C2096   1.398       .  A
C2095      N2100   1.429       .  S
C2096      C2097   1.422       .  A
C2096      H2101   1.075       .  S
C2097      C2098   1.435       .  A
C2098      N2102   1.428       .  S
C2099      C2104   1.406       .  A
C2099      C2108   1.399       .  A
N2100      O2115   1.262       .  A
N2100      O2116   1.262       .  A
N2102      O2113   1.262       .  A
N2102      O2114   1.263       .  A
C2104      C2105   1.402       .  A
C2104      N2109   1.429       .  S
C2105      C2106   1.409       .  A
C2105      H2110   1.083       .  S
C2106      C2107   1.420       .  A
C2107      C2108   1.403       .  A
C2107      N2111   1.429       .  S
C2108      H2112   1.084       .  S
N2109      O2119   1.262       .  A
N2109      O2120   1.262       .  A
N2111      O2117   1.262       .  A
N2111      O2118   1.262       .  A
C2121      C2122   1.405       .  A
C2121      C2126   1.400       .  A
C2121      H2131   1.083       .  S
C2122      C2127   1.487       .  S
C2122      C2123   1.411       .  A
C2123      C2124   1.407       .  A
C2123      N2128   1.432       .  S
C2124      C2125   1.403       .  A
C2124      H2129   1.083       .  S
C2125      C2126   1.407       .  A
C2126      N2130   1.430       .  S
C2127      C2132   1.397       .  A
C2127      C2136   1.399       .  A
N2128      O2143   1.262       .  A
N2128      O2144   1.262       .  A
N2130      O2141   1.262       .  A
N2130      O2142   1.262       .  A
C2132      C2133   1.397       .  A
C2132      N2137   1.432       .  S
C2133      C2134   1.421       .  A
C2134      C2135   1.432       .  A
C2135      C2136   1.413       .  A
C2136      H2140   1.076       .  S
N2137      O2148   1.262       .  A
N2139      O2145   1.263       .  A
N2139      O2146   1.263       .  A
C2149      C2150   1.398       .  A
C2149      C2154   1.396       .  A
C2149      H2159   1.083       .  S
C2150      C2155   1.497       .  S
C2150      C2151   1.410       .  A
C2151      C2152   1.407       .  A
C2151      N2156   1.433       .  S
C2152      C2153   1.420       .  A
C2152      H2157   1.078       .  S
C2153      C2154   1.433       .  A
C2154      N2158   1.433       .  S
C2155      C2160   1.417       .  A
C2155      C2164   1.407       .  A
N2156      O2171   1.262       .  A
N2156      O2172   1.262       .  A
N2158      O2169   1.261       .  A
N2158      O2170   1.262       .  A
C2160      C2161   1.402       .  A
C2160      N2165   1.435       .  S
C2161      C2162   1.403       .  A
C2161      H2166   1.084       .  S
C2162      C2163   1.412       .  A
C2163      C2164   1.404       .  A
C2163      N2167   1.429       .  S
C2164      H2168   1.083       .  S
N2165      O2175   1.262       .  A
N2165      O2176   1.262       .  A
N2167      O2173   1.262       .  A
N2167      O2174   1.262       .  A
C2177      C2182   1.402       .  A
C2177      H2187   1.084       .  S
C2178      C2183   1.480       .  S
C2178      C2179   1.407       .  A
C2179      N2184   1.431       .  S
C2180      C2181   1.409       .  A
C2180      H2185   1.083       .  S
C2181      C2182   1.418       .  A
C2182      N2186   1.428       .  S
C2183      C2188   1.400       .  A
C2183      C2192   1.393       .  A
N2184      O2199   1.262       .  A
N2184      O2200   1.262       .  A
N2186      O2197   1.262       .  A
N2186      O2198   1.262       .  A
C2188      C2189   1.400       .  A
C2188      N2193   1.429       .  S
C2189      C2190   1.422       .  A
C2189      H2194   1.079       .  S
C2190      C2191   1.434       .  A
C2191      C2192   1.404       .  A
C2191      N2195   1.428       .  S
C2192      H2196   1.084       .  S
N2193      O2203   1.262       .  A
N2193      O2204   1.262       .  A
N2195      O2201   1.262       .  A
N2195      O2202   1.263       .  A
C2205      C2206   1.400   1_455  A
C2205      H2215   1.084       .  S
C2206      C2211   1.472       .  S
C2207      C2208   1.397       .  A
C2207      N2212   1.429       .  S
C2208      C2209   1.406       .  A
C2208      H2213   1.084       .  S
C2209      C2210   1.413       .  A
C2210      N2214   1.429       .  S
C2211      C2216   1.398       .  A
C2211      C2220   1.392       .  A
N2212      O2227   1.262       .  A
N2214      O2225   1.262       .  A
N2214      O2226   1.262       .  A
C2216      C2217   1.396       .  A
C2216      N2221   1.429       .  S
C2217      C2218   1.420       .  A
C2217      H2222   1.076       .  S
C2218      C2219   1.439       .  A
C2219      C2220   1.401       .  A
C2219      N2223   1.435       .  S
C2220      H2224   1.085       .  S
N2221      O2231   1.262       .  A
N2221      O2232   1.262       .  A
N2223      O2229   1.261       .  A
N2223      O2230   1.263       .  A
C2233      C2234   1.398       .  A
C2233      C2238   1.403       .  A
C2233      H2243   1.084       .  S
C2234      C2239   1.493       .  S
C2234      C2235   1.408       .  A
C2235      C2236   1.402       .  A
C2235      N2240   1.432       .  S
C2236      C2237   1.416       .  A
C2236      H2241   1.078       .  S
C2237      C2238   1.434       .  A
C2238      N2242   1.432       .  S
C2239      C2244   1.404       .  A
C2239      C2248   1.399       .  A
N2240      O2255   1.262       .  A
N2240      O2256   1.262       .  A
N2242      O2253   1.262       .  A
N2242      O2254   1.262       .  A
C2244      C2245   1.400       .  A
C2244      N2249   1.430       .  S
C2245      C2246   1.418       .  A
C2245      H2250   1.084       .  S
C2246      C2247   1.442       .  A
C2247      C2248   1.406       .  A
C2247      N2251   1.436       .  S
C2248      H2252   1.084       .  S
N2249      O2259   1.262       .  A
N2249      O2260   1.262       .  A
N2251      O2257   1.260       .  A
N2251      O2258   1.263       .  A
C2261      C2262   1.401       .  A
C2261      C2266   1.401       .  A
C2261      H2271   1.084       .  S
C2262      C2267   1.482       .  S
C2262      C2263   1.410       .  A
C2263      C2264   1.401       .  A
C2263      N2268   1.432       .  S
C2264      C2265   1.406       .  A
C2264      H2269   1.084       .  S
C2265      C2266   1.417       .  A
C2266      N2270   1.429       .  S
C2267      C2272   1.402       .  A
C2267      C2276   1.395       .  A
N2268      O2283   1.262       .  A
N2268      O2284   1.262       .  A
N2270      O2281   1.262       .  A
N2270      O2282   1.262       .  A
C2272      C2273   1.402       .  A
C2272      N2277   1.429       .  S
C2273      C2274   1.419       .  A
C2273      H2278   1.078       .  S
C2274      C2275   1.435       .  A
C2275      C2276   1.398       .  A
C2275      N2279   1.432       .  S
C2276      H2280   1.084       .  S
N2277      O2287   1.262       .  A
N2277      O2288   1.262       .  A
N2279      O2285   1.262       .  A
N2279      O2286   1.262       .  A
C2289      C2290   1.401       .  A
C2289      C2294   1.398       .  A
C2289      H2299   1.084       .  S
C2290      C2295   1.482       .  S
C2290      C2291   1.411       .  A
C2291      C2292   1.401       .  A
C2291      N2296   1.432       .  S
C2292      C2293   1.406       .  A
C2292      H2297   1.084       .  S
C2293      C2294   1.415       .  A
C2294      N2298   1.430       .  S
C2295      C2300   1.405       .  A
C2295      C2304   1.398       .  A
N2296      O2311   1.262       .  A
N2296      O2312   1.262       .  A
N2298      O2309   1.262       .  A
N2298      O2310   1.262       .  A
C2300      C2301   1.397       .  A
C2300      N2305   1.431       .  S
C2301      C2302   1.416       .  A
C2301      H2306   1.079       .  S
C2302      C2303   1.432       .  A
C2303      C2304   1.401       .  A
C2303      N2307   1.432       .  S
C2304      H2308   1.084       .  S
N2305      O2315   1.262       .  A
N2305      O2316   1.262       .  A
N2307      O2313   1.262       .  A
N2307      O2314   1.262       .  A
C2317      C2318   1.402       .  A
C2317      C2322   1.400       .  A
C2317      H2327   1.084       .  S
C2318      C2323   1.486       .  S
C2318      C2319   1.410       .  A
C2319      C2320   1.403       .  A
C2319      N2324   1.430       .  S
C2320      C2321   1.406       .  A
C2320      H2325   1.084       .  S
C2321      C2322   1.414       .  A
C2323      C2328   1.402       .  A
C2323      C2332   1.398       .  A
N2324      O2339   1.262       .  A
N2324      O2340   1.262       .  A
N2326      O2337   1.262       .  A
N2326      O2338   1.262       .  A
C2328      C2329   1.396       .  A
C2328      N2333   1.430       .  S
C2329      C2330   1.420       .  A
C2329      H2334   1.076       .  S
C2330      C2331   1.435       .  A
C2331      C2332   1.405       .  A
C2331      N2335   1.432       .  S
C2332      H2336   1.084       .  S
N2333      O2343   1.262       .  A
N2333      O2344   1.262       .  A
N2335      O2341   1.262       .  A
N2335      O2342   1.262       .  A
C2345      C2346   1.404       .  A
C2345      C2350   1.399       .  A
C2345      H2355   1.084       .  S
C2346      C2351   1.488       .  S
C2346      C2347   1.413       .  A
C2347      C2348   1.401       .  A
C2347      N2352   1.430       .  S
C2348      C2349   1.400       .  A
C2348      H2353   1.084       .  S
C2349      C2350   1.410       .  A
C2350      N2354   1.430       .  S
C2351      C2356   1.404       .  A
C2351      C2360   1.399       .  A
N2352      O2367   1.262       .  A
N2352      O2368   1.262       .  A
N2354      O2365   1.262       .  A
N2354      O2366   1.262       .  A
C2356      C2357   1.395       .  A
C2356      N2361   1.432       .  S
C2357      C2358   1.420       .  A
C2357      H2362   1.083       .  S
C2358      C2359   1.439       .  A
C2359      C2360   1.407       .  A
C2359      N2363   1.437       .  S
C2360      H2364   1.084       .  S
N2361      O2371   1.262       .  A
N2361      O2372   1.262       .  A
N2363      O2369   1.260       .  A
N2363      O2370   1.263       .  A
C2373      C2374   1.403       .  A
C2373      C2378   1.404       .  A
C2373      H2383   1.084       .  S
C2374      C2379   1.488       .  S
C2374      C2375   1.412       .  A
C2375      C2376   1.402       .  A
C2375      N2380   1.435       .  S
C2376      C2377   1.409       .  A
C2376      H2381   1.083       .  S
C2377      C2378   1.416       .  A
C2378      N2382   1.428       .  S
C2379      C2384   1.406       .  A
C2379      C2388   1.394       .  A
N2380      O2395   1.262       .  A
N2380      O2396   1.262       .  A
N2382      O2393   1.262       .  A
N2382      O2394   1.262       .  A
C2384      C2385   1.403       .  A
C2384      N2389   1.437       .  S
C2385      C2386   1.425       .  A
C2385      H2390   1.076       .  S
C2386      C2387   1.435       .  A
C2387      C2388   1.402       .  A
C2387      N2391   1.428       .  S
C2388      H2392   1.084       .  S
N2389      O2399   1.262       .  A
N2389      O2400   1.263       .  A
N2391      O2397   1.262       .  A
N2391      O2398   1.262       .  A
C2401      C2402   1.393       .  A
C2401      C2406   1.402       .  A
C2401      H2411   1.085       .  S
C2402      C2407   1.477       .  S
C2402      C2403   1.400       .  A
C2403      C2404   1.399       .  A
C2403      N2408   1.430       .  S
C2404      C2405   1.424       .  A
C2404      H2409   1.083       .  S
C2405      C2406   1.440       .  A
C2406      N2410   1.432       .  S
C2407      C2412   1.407       .  A
C2407      C2416   1.397       .  A
N2408      O2423   1.262       .  A
N2408      O2424   1.262       .  A
N2410      O2421   1.260       .  A
N2410      O2422   1.263       .  A
C2412      C2413   1.404       .  A
C2412      N2417   1.429       .  S
C2413      C2414   1.410       .  A
C2413      H2418   1.083       .  S
C2414      C2415   1.417       .  A
C2415      C2416   1.397       .  A
C2415      N2419   1.429       .  S
C2416      H2420   1.084       .  S
N2417      O2427   1.262       .  A
N2417      O2428   1.262       .  A
N2419      O2425   1.262       .  A
N2419      O2426   1.262       .  A
C2429      C2434   1.406       .  A
C2429      H2439   1.083       .  S
C2430      C2435   1.495   1_556  S
C2430      C2431   1.406       .  A
C2431      N2436   1.432       .  S
C2432      H2437   1.083       .  S
C2434      N2438   1.437       .  S
C2435      C2440   1.404       .  A
N2436      O2452   1.262       .  A
N2438      O2449   1.263       .  A
N2438      O2450   1.260       .  A
C2440      C2441   1.401       .  A
C2440      N2445   1.432       .  S
C2441      C2442   1.423       .  A
C2441      H2446   1.073       .  S
C2443      C2444   1.405       .  A
C2443      N2447   1.424       .  S
C2444      H2448   1.084       .  S
N2445      O2455   1.262       .  A
N2445      O2456   1.262       .  A
N2447      O2454   1.263       .  A
C2457      C2458   1.399       .  A
C2457      C2462   1.404       .  A
C2457      H2467   1.084       .  S
C2458      C2463   1.483       .  S
C2458      C2459   1.404       .  A
C2459      C2460   1.398       .  A
C2459      N2464   1.436       .  S
C2460      C2461   1.420       .  A
C2460      H2465   1.076       .  S
C2461      C2462   1.432       .  A
C2462      N2466   1.433       .  S
C2463      C2468   1.407       .  A
C2463      C2472   1.393       .  A
N2464      O2479   1.262       .  A
N2464      O2480   1.262       .  A
N2466      O2477   1.262       .  A
N2466      O2478   1.261       .  A
C2468      C2469   1.401       .  A
C2468      N2473   1.436       .  S
C2469      C2470   1.419       .  A
C2469      H2474   1.076       .  S
C2470      C2471   1.436       .  A
C2471      C2472   1.401       .  A
C2471      N2475   1.431       .  S
C2472      H2476   1.084       .  S
N2473      O2483   1.262       .  A
N2473      O2484   1.263       .  A
N2475      O2481   1.262       .  A
N2475      O2482   1.261       .  A
C2485      C2486   1.399       .  A
C2485      C2490   1.397       .  A
C2485      H2495   1.084       .  S
C2486      C2491   1.480       .  S
C2486      C2487   1.410       .  A
C2487      C2488   1.406       .  A
C2487      N2492   1.431       .  S
C2488      C2489   1.406       .  A
C2488      H2493   1.084       .  S
C2489      C2490   1.412       .  A
C2490      N2494   1.429       .  S
C2491      C2496   1.403       .  A
C2491      C2500   1.394       .  A
N2492      O2507   1.262       .  A
N2492      O2508   1.262       .  A
N2494      O2505   1.262       .  A
N2494      O2506   1.262       .  A
C2496      C2497   1.401       .  A
C2497      C2498   1.424       .  A
C2498      C2499   1.431       .  A
C2499      C2500   1.402       .  A
C2499      N2503   1.428       .  S
C2500      H2504   1.084       .  S
N2501      O2511   1.262       .  A
N2503      O2509   1.263       .  A
N2503      O2510   1.262       .  A
C2513      C2514   1.395       .  A
C2513      C2518   1.400       .  A
C2513      H2523   1.084       .  S
C2514      C2519   1.480       .  S
C2514      C2515   1.402       .  A
C2515      C2516   1.403       .  A
C2515      N2520   1.430       .  S
C2516      C2517   1.421       .  A
C2516      H2521   1.078       .  S
C2517      C2518   1.434       .  A
C2518      N2522   1.431       .  S
C2519      C2524   1.404       .  A
C2519      C2528   1.400       .  A
N2520      O2535   1.262       .  A
N2520      O2536   1.262       .  A
C2524      C2525   1.400       .  A
C2524      N2529   1.429       .  S
C2525      C2526   1.410       .  A
C2525      H2530   1.083       .  S
C2526      C2527   1.419       .  A
C2527      C2528   1.404       .  A
C2527      N2531   1.429       .  S
C2528      H2532   1.084       .  S
N2531      O2537   1.262       .  A
N2531      O2538   1.262       .  A
C2541      C2542   1.395       .  A
C2541      C2546   1.402       .  A
C2541      H2551   1.084       .  S
C2542      C2547   1.480       .  S
C2542      C2543   1.403       .  A
C2543      C2544   1.399       .  A
C2543      N2548   1.432       .  S
C2544      C2545   1.419       .  A
C2545      C2546   1.436       .  A
C2547      C2552   1.410       .  A
C2547      C2556   1.400       .  A
N2548      O2564   1.262       .  A
N2550      O2561   1.261       .  A
N2550      O2562   1.262       .  A
C2552      C2553   1.403       .  A
C2552      N2557   1.432       .  S
C2553      C2554   1.405       .  A
C2553      H2558   1.084       .  S
C2554      C2555   1.411       .  A
C2555      C2556   1.399       .  A
C2555      N2559   1.428       .  S
C2556      H2560   1.084       .  S
N2557      O2567   1.262       .  A
N2557      O2568   1.262       .  A
N2559      O2565   1.262       .  A
N2559      O2566   1.262       .  A
C2569      C2570   1.398       .  A
C2569      C2574   1.398       .  A
C2569      H2579   1.084       .  S
C2570      C2575   1.481       .  S
C2570      C2571   1.407       .  A
C2571      C2572   1.404       .  A
C2571      N2576   1.429       .  S
C2572      C2573   1.410       .  A
C2572      H2577   1.083       .  S
C2573      C2574   1.420       .  A
C2574      N2578   1.429       .  S
C2575      C2580   1.403       .  A
C2575      C2584   1.396       .  A
N2576      O2591   1.262       .  A
N2576      O2592   1.262       .  A
N2578      O2589   1.262       .  A
N2578      O2590   1.262       .  A
C2580      C2581   1.399       .  A
C2580      N2585   1.431       .  S
C2581      C2582   1.418       .  A
C2581      H2586   1.077       .  S
C2582      C2583   1.435       .  A
C2583      C2584   1.402       .  A
C2583      N2587   1.432       .  S
C2584      H2588   1.084       .  S
N2585      O2595   1.262       .  A
N2585      O2596   1.262       .  A
N2587      O2593   1.262       .  A
N2587      O2594   1.262       .  A
C2597      C2598   1.396       .  A
C2597      H2607   1.085       .  S
C2598      C2603   1.476       .  S
C2599      C2600   1.405       .  A
C2599      N2604   1.428       .  S
C2600      C2601   1.410       .  A
C2600      H2605   1.083       .  S
C2601      C2602   1.415       .  A
C2602      N2606   1.427       .  S
C2603      C2608   1.400       .  A
C2603      C2612   1.396       .  A
N2604      O2619   1.262       .  A
N2606      O2618   1.261       .  A
C2608      C2609   1.396       .  A
C2608      N2613   1.430       .  S
C2609      C2610   1.419       .  A
C2609      H2614   1.078       .  S
C2610      C2611   1.433       .  A
C2611      C2612   1.404       .  A
C2611      N2615   1.431       .  S
C2612      H2616   1.084       .  S
N2613      O2623   1.262       .  A
N2613      O2624   1.261       .  A
N2615      O2621   1.262       .  A
N2615      O2622   1.262       .  A
C2625      C2630   1.405       .  A
C2625      H2635   1.083       .  S
C2626      C2631   1.499       .  S
C2627      C2628   1.401       .  A
C2628      C2629   1.400       .  A
C2628      H2633   1.084       .  S
C2629      C2630   1.409       .  A
C2630      N2634   1.429       .  S
C2631      C2636   1.412       .  A
C2631      C2640   1.400       .  A
N2632      O2647   1.262       .  A
N2632      O2648   1.262       .  A
N2634      O2645   1.262       .  A
N2634      O2646   1.262       .  A
C2636      C2637   1.407       .  A
C2636      N2641   1.432       .  S
C2637      C2638   1.417       .  A
C2637      H2642   1.078       .  S
C2638      C2639   1.433       .  A
C2639      C2640   1.398       .  A
C2639      N2643   1.432       .  S
C2640      H2644   1.084       .  S
N2641      O2651   1.262       .  A
N2643      O2649   1.262       .  A
N2643      O2650   1.262       .  A
