geometry optimzed in LAMMPS
_audit_creation_date              2020-11-30 
_audit_creation_method            'lammps2cif' 
_symmetry_space_group_name_H-M    'P1' 
_symmetry_Int_Tables_number       1 
_symmetry_cell_setting            triclinic 
loop_ 
_symmetry_equiv_pos_as_xyz 
  x,y,z 
_cell_length_a                    28.24309102 
_cell_length_b                    28.07314341323202 
_cell_length_c                    31.32409977421175 
_cell_angle_alpha                 90.43168279332049 
_cell_angle_beta                  90.42677621128357 
_cell_angle_gamma                 89.95029609262366 
loop_ 
_atom_site_label 
_atom_site_type_symbol 
_atom_site_fract_x 
_atom_site_fract_y 
_atom_site_fract_z 
_atom_site_charge 
O1          O  0.86710054  0.67029939  0.25367814    -0.56300
C2          C  0.77675830  0.54270250  0.28024578     0.76400
O3          O  0.86743019  0.56374873  0.04990033    -0.57400
C4          C  0.91160480  0.66455211  0.25124768     0.76300
C5          C  0.82043840  0.70124805  0.00593941     0.78700
Cd6        Cd  0.84124619  0.60505719  0.31712823     1.37500
O7          O  0.80858946  0.52441911  0.30306643    -0.56300
O8          O  0.77183974  0.64995802  0.32462749    -0.55100
C9          C  0.82557611  0.55931569  0.06589100     0.78700
O10         O  0.86063170  0.68910256  0.02044778    -0.57400
O11         O  0.80337028  0.59762684  0.92059084    -0.55900
O12         O  0.92389449  0.63328413  0.27930165    -0.55900
O13         O  0.79478129  0.57953691  0.04257825    -0.55100
O14         O  0.87251029  0.91538874  0.07933180    -0.56300
C15         C  0.78670406  0.02443595  0.03669211     0.76400
O16         O  0.86339343  0.00178008  0.29771221    -0.57400
C17         C  0.91623197  0.91816569  0.08894618     0.76300
C18         C  0.83274302  0.85892857  0.38128133     0.78700
Cd19       Cd  0.84778447  0.94804122  0.35915612     1.37500
O20         O  0.82422533  0.04928623  0.03365553    -0.56300
O21         O  0.81271524  0.92283887  0.98883989    -0.55100
C22         C  0.82296224  0.01584724  0.28328911     0.78700
O23         O  0.86672903  0.87234628  0.35731564    -0.57400
O24         O  0.81890210  0.90141026  0.30142627    -0.55900
O25         O  0.93670481  0.94649176  0.06239835    -0.55900
O26         O  0.79057613  0.00685809  0.30994854    -0.55100
O27         O  0.52349320  0.86985765  0.27745066    -0.56300
C28         C  0.62475907  0.87985055  0.29499981     0.76400
O29         O  0.55664008  0.02215224  0.08510852    -0.57400
C30         C  0.48869361  0.89449147  0.26484009     0.76300
C31         C  0.58641101  0.86839526  0.03129884     0.78700
Cd32       Cd  0.55740019  0.95887035  0.02088432     1.37500
O33         O  0.61615082  0.92153722  0.28100898    -0.56300
O34         O  0.55083870  0.86010631  0.38310287    -0.55100
C35         C  0.59150144  0.00769219  0.10829333     0.78700
O36         O  0.54293446  0.87769599  0.03678142    -0.57400
O37         O  0.61803261  0.97990888  0.97915965    -0.55900
O38         O  0.48285308  0.93084389  0.28993533    -0.55900
O39         O  0.60676946  0.96822352  0.09372517    -0.55100
O40         O  0.50364590  0.65782650  0.26750870    -0.56300
C41         C  0.59424766  0.57293213  0.25209203     0.76400
O42         O  0.59748999  0.54800999  0.03430135    -0.57400
C43         C  0.47128818  0.67060665  0.29270295     0.76300
C44         C  0.50032085  0.68983905  0.06210895     0.78700
Cd45       Cd  0.58072239  0.62960802  0.01096151     1.37500
O46         O  0.56344895  0.55419095  0.27692313    -0.56300
O47         O  0.48642688  0.66654506  0.02888036    -0.55100
C48         C  0.63550035  0.56581120  0.04832437     0.78700
O49         O  0.54513633  0.69352332  0.06212426    -0.57400
O50         O  0.60477733  0.61438017  0.26624722    -0.55900
O51         O  0.62260392  0.70357000  0.02294409    -0.55900
O52         O  0.59331490  0.59797462  0.38454690    -0.55100
C53         C  0.60426025  0.55147287  0.20360371    -0.00900
C54         C  0.81729578  0.53941212  0.11421058    -0.00900
C55         C  0.47363392  0.69201965  0.10777716    -0.00900
C56         C  0.47006545  0.89446211  0.21563346    -0.00900
C57         C  0.94416247  0.68095650  0.20949026    -0.00900
C58         C  0.94052790  0.89978797  0.13447402    -0.00900
C59         C  0.60664313  0.03225667  0.15424003    -0.00900
C60         C  0.81706617  0.03891750  0.23559488    -0.00900
O61         O  0.07247050  0.39398122  0.29777050    -0.56300
C62         C  0.09605362  0.52340270  0.25695213     0.76400
O63         O  0.04123486  0.40543386  0.07497188    -0.57400
C64         C  0.09998349  0.37122259  0.99569241     0.76300
C65         C  0.13981167  0.50887600  0.02226373     0.78700
Cd66       Cd  0.06253369  0.45833736  0.00385343     1.37500
O67         O  0.05477995  0.51589472  0.27297430    -0.56300
O68         O  0.14880317  0.47231669  0.37392785    -0.55100
C69         C  0.99789314  0.41415549  0.08148070     0.78700
O70         O  0.10216914  0.53331799  0.02580365    -0.57400
O71         O  0.12786639  0.50592476  0.27997561    -0.55900
O72         O  0.11437338  0.40278547  0.02133839    -0.55900
O73         O  0.98307949  0.44369502  0.05273459    -0.55100
O74         O  0.10555151  0.18586809  0.01718923    -0.56300
C75         C  0.09421961  0.06843679  0.06508719     0.76400
O76         O  0.99162789  0.12573402  0.26519779    -0.57400
C77         C  0.13666920  0.19477087  0.98933657     0.76300
C78         C  0.11565377  0.03764038  0.27605743     0.78700
Cd79       Cd  0.07073202  0.12083122  0.97650841     1.37500
O80         O  0.09227145  0.11303505  0.05660018    -0.56300
O81         O  0.12025784  0.09977617  0.91823319    -0.55100
C82         C  0.99744458  0.16789469  0.25067062     0.78700
O83         O  0.08089658  0.02216158  0.29708247    -0.57400
O84         O  0.08065696  0.04419858  0.03267598    -0.55900
O85         O  0.13032500  0.15736796  0.29395058    -0.55900
O86         O  0.03236641  0.18743326  0.26899114    -0.55100
O87         O  0.34816172  0.19665578  0.30086824    -0.56300
C88         C  0.32165183  0.06330720  0.25056461     0.76400
O89         O  0.38563304  0.17982494  0.07812380    -0.57400
C90         C  0.32746959  0.20942153  0.33516311     0.76300
C91         C  0.29599981  0.09481067  0.03594171     0.78700
Cd92       Cd  0.35598556  0.12067085  0.33369777     1.37500
O93         O  0.36396268  0.06586256  0.26595621    -0.56300
O94         O  0.29116060  0.10954158  0.38012734    -0.55100
C95         C  0.43053704  0.17927898  0.08407274     0.78700
O96         O  0.33180536  0.06780226  0.03159768    -0.57400
O97         O  0.29410300  0.08867801  0.27219092    -0.55900
O98         O  0.36016429  0.21088177  0.97703807    -0.55900
O99         O  0.45175817  0.15982017  0.05238378    -0.55100
O100        O  0.35398930  0.54978006  0.31983046    -0.56300
C101        C  0.41981950  0.40460076  0.27315578     0.76400
O102        O  0.32364975  0.46534664  0.07356890    -0.57400
C103        C  0.31860657  0.53052162  0.30120521     0.76300
C104        C  0.41427375  0.39021708  0.05023613     0.78700
Cd105      Cd  0.37079085  0.46855055  0.34613021     1.37500
O106        O  0.37591864  0.41301907  0.27856105    -0.56300
O107        O  0.31870158  0.41002159  0.35921271    -0.55100
C108        C  0.32786175  0.51025513  0.08029147     0.78700
O109        O  0.43992216  0.42650588  0.04135808    -0.57400
O110        O  0.44371521  0.41972699  0.30567724    -0.55900
O111        O  0.30425826  0.45982389  0.97210703    -0.55900
O112        O  0.35156519  0.53029879  0.05071957    -0.55100
C113        C  0.10367296  0.54586792  0.21000352    -0.00900
C114        C  0.31695166  0.53583867  0.12550973    -0.00900
C115        C  0.45182248  0.18245663  0.13158875    -0.00900
C116        C  0.44186959  0.39559209  0.22577646    -0.00900
C117        C  0.09804228  0.05021674  0.11428778    -0.00900
C118        C  0.31145901  0.04142747  0.20328550    -0.00900
C119        C  0.96770315  0.18643704  0.20879752    -0.00900
C120        C  0.97035171  0.40102203  0.12682329    -0.00900
C121        C  0.96848443  0.24295061  0.18761632    -0.03800
C122        C  0.96916480  0.28614675  0.21241301    -0.00900
C123        C  0.96946416  0.33473544  0.19436480     0.04100
C124        C  0.97113363  0.34565753  0.14864553    -0.03800
C125        C  0.97534420  0.30319493  0.12414056    -0.00900
C126        C  0.97267493  0.25478843  0.14168155     0.04100
C127        C  0.97420215  0.28116103  0.25794900     0.38700
C128        C  0.98733598  0.30899793  0.07960755     0.38700
C129        C  0.97715417  0.21888790  0.10861559     0.37100
C130        C  0.97081746  0.37385648  0.22495550     0.37100
N131        N  0.98259258  0.19501000  0.07871666    -0.37700
N132        N  0.97158291  0.40462946  0.24977143    -0.37700
N133        N  0.99888750  0.31246759  0.04444519    -0.37100
N134        N  0.98006651  0.27823316  0.29436738    -0.37100
C135        C  0.06547228  0.09275858  0.13327427    -0.03800
C136        C  0.08122711  0.13315615  0.15654213    -0.00900
C137        C  0.04854401  0.16567681  0.17488111     0.04100
C138        C  0.99862417  0.15619210  0.17619353    -0.03800
C139        C  0.98255279  0.12265013  0.14511843    -0.00900
C140        C  0.01592583  0.09607027  0.12067934     0.04100
C141        C  0.12875088  0.15000789  0.15358887     0.38700
C142        C  0.93472190  0.12350912  0.12834048     0.38700
C143        C  0.99837870  0.07329042  0.08147092     0.37100
C144        C  0.06661157  0.21107783  0.19071586     0.37100
N145        N  0.98317490  0.05624233  0.05049091    -0.37700
N146        N  0.08119799  0.24706004  0.20317273    -0.37700
N147        N  0.89920118  0.12274267  0.10956974    -0.37100
N148        N  0.16430654  0.17004379  0.15176639    -0.37100
C149        C  0.25607143  0.04185791  0.17943656    -0.00600
C150        C  0.21773113  0.00943508  0.18864846    -0.00900
C151        C  0.16907219  0.01240861  0.17006144     0.04100
C152        C  0.15399877  0.04476869  0.13606013    -0.03800
C153        C  0.19403393  0.07234564  0.12305406    -0.00900
C154        C  0.24038194  0.07382169  0.14514424     0.04100
C155        C  0.22734909  0.97067757  0.21755325     0.38700
C156        C  0.18709607  0.10474989  0.08805687     0.38700
C157        C  0.26747974  0.11541387  0.13470905     0.37100
C158        C  0.13494249  0.98045326  0.18822680     0.37100
N159        N  0.28548352  0.15074799  0.12546383    -0.37700
N160        N  0.10964599  0.95415293  0.20475993    -0.37700
N161        N  0.18273382  0.13385385  0.06246853    -0.37100
N162        N  0.23219275  0.93784828  0.23925876    -0.37100
C163        C  0.41689514  0.14281388  0.14998222    -0.03800
C164        C  0.40601096  0.09799693  0.12759473    -0.00900
C165        C  0.36941194  0.06736347  0.14144866     0.04100
C166        C  0.34379474  0.07818026  0.17869927    -0.03800
C167        C  0.35106377  0.12593927  0.19467259    -0.00900
C168        C  0.39333491  0.14908111  0.18823340     0.04100
C169        C  0.43180367  0.08093549  0.09020471     0.38700
C170        C  0.31459159  0.15398540  0.21538615     0.38700
C171        C  0.41495105  0.17182006  0.22453040     0.37100
C172        C  0.35448870  0.02976392  0.11262231     0.37100
N173        N  0.43181838  0.18897608  0.25448302    -0.37700
N174        N  0.34606816  0.00012294  0.08783808    -0.37700
N175        N  0.28622136  0.17781740  0.23121777    -0.37100
N176        N  0.45109136  0.06489245  0.06088091    -0.37100
C177        C  0.44794379  0.33892990  0.20399627    -0.03800
C178        C  0.41317303  0.30134107  0.20682176    -0.00900
C179        C  0.40998590  0.25954294  0.17786450     0.04100
C180        C  0.44973218  0.23843610  0.15533069    -0.03800
C181        C  0.48763725  0.27339648  0.15598019    -0.00900
C182        C  0.48348961  0.32273140  0.17337697     0.04100
C183        C  0.38162256  0.30179825  0.24233568     0.38700
C184        C  0.53309137  0.26089251  0.13838821     0.38700
C185        C  0.51619060  0.35622813  0.15553088     0.37100
C186        C  0.36273820  0.24400004  0.16712799     0.37100
N187        N  0.54430218  0.37967111  0.13926742    -0.37700
N188        N  0.32409648  0.23538672  0.15746179    -0.37700
N189        N  0.57135446  0.25494141  0.12651049    -0.37100
N190        N  0.35578166  0.30076030  0.27066489    -0.37100
C191        C  0.34028655  0.49579796  0.15628706    -0.03800
C192        C  0.32464902  0.44719867  0.16274677    -0.00900
C193        C  0.35185281  0.41536855  0.19005584     0.04100
C194        C  0.40262703  0.42278602  0.19637791    -0.03800
C195        C  0.41640807  0.46413854  0.17618195    -0.00900
C196        C  0.38468322  0.50280815  0.17490368     0.04100
C197        C  0.28196380  0.42765490  0.14344961     0.38700
C198        C  0.45133078  0.45748653  0.14378824     0.38700
C199        C  0.38519801  0.53568200  0.21018501     0.37100
C200        C  0.32358923  0.38017726  0.21149485     0.37100
N201        N  0.38543603  0.56352385  0.23748395    -0.37700
N202        N  0.29499697  0.35583870  0.22614533    -0.37700
N203        N  0.48012748  0.45002263  0.11869192    -0.37100
N204        N  0.24888945  0.40785847  0.13038224    -0.37100
C205        C  0.06987181  0.50874799  0.18567390    -0.03800
C206        C  0.03286558  0.52091397  0.15719829    -0.00900
C207        C  0.99558679  0.48840473  0.14768804     0.04100
C208        C  0.00011147  0.43806433  0.15486039    -0.03800
C209        C  0.04445992  0.42444564  0.17362866    -0.00900
C210        C  0.07562493  0.45846384  0.19218236     0.04100
C211        C  0.04008772  0.55759721  0.12555988     0.38700
C212        C  0.06246554  0.37639029  0.16899956     0.38700
C213        C  0.11926370  0.44167731  0.21137967     0.37100
C214        C  0.95940223  0.50732391  0.12009659     0.37100
N215        N  0.15467624  0.43142681  0.22741495    -0.37700
N216        N  0.93569454  0.52646580  0.09555664    -0.37700
N217        N  0.07666726  0.33800398  0.16508815    -0.37100
N218        N  0.04238124  0.58396541  0.09738594    -0.37100
C219        C  0.15904397  0.54622760  0.18604331    -0.03800
C220        C  0.19851985  0.57615086  0.19878730    -0.00900
C221        C  0.24676377  0.57438623  0.17958815     0.04100
C222        C  0.26041792  0.54515243  0.14307461    -0.03800
C223        C  0.21950805  0.52132804  0.12640153    -0.00900
C224        C  0.17256349  0.52031670  0.14695327     0.04100
C225        C  0.19015204  0.61073661  0.23225342     0.38700
C226        C  0.22596005  0.49446829  0.08759368     0.38700
C227        C  0.13919014  0.48948940  0.12599189     0.37100
C228        C  0.28227486  0.60468199  0.19867259     0.37100
N229        N  0.11358269  0.46273603  0.10985840    -0.37700
N230        N  0.30851713  0.63033424  0.21546350    -0.37700
N231        N  0.23176507  0.47030718  0.05808507    -0.37100
N232        N  0.18521737  0.63955947  0.25841982    -0.37100
C233        C  0.33280068  0.25652395  0.35366292    -0.03800
C234        C  0.37887847  0.27599571  0.35707223    -0.00900
C235        C  0.47031332  0.32681940  0.03304271     0.04100
C236        C  0.34617105  0.34317939  0.39453491    -0.03800
C237        C  0.30196060  0.32139639  0.39643024    -0.00900
C238        C  0.29580127  0.27689828  0.37774836     0.04100
C239        C  0.49718449  0.26888707  0.97878751     0.38700
C240        C  0.26245412  0.34581915  0.41596548     0.38700
C241        C  0.25327092  0.25132567  0.38745046     0.37100
C242        C  0.51212612  0.35538873  0.02567877     0.37100
N243        N  0.22012826  0.23147344  0.39887699    -0.37700
N244        N  0.54537852  0.37820622  0.01921191    -0.37700
N245        N  0.23072372  0.36441219  0.43203682    -0.37100
N246        N  0.52731579  0.25639752  0.95653364    -0.37100
C247        C  0.16462557  0.03003846  0.29188262    -0.03800
C248        C  0.17622370  0.99853254  0.32559158    -0.00900
C249        C  0.21591909  0.00919098  0.35257842     0.04100
C250        C  0.23720707  0.05475072  0.35050416    -0.03800
C251        C  0.23403244  0.11505809  0.98389875    -0.00900
C252        C  0.20890581  0.09808518  0.94898380     0.04100
C253        C  0.14899066  0.95543830  0.33083968     0.38700
C254        C  0.24949710  0.16444560  0.98293905     0.38700
C255        C  0.21212006  0.12393739  0.90992892     0.37100
C256        C  0.23639492  0.97357835  0.37980736     0.37100
N257        N  0.21901269  0.14699360  0.88053885    -0.37700
N258        N  0.25552257  0.94436849  0.39916943    -0.37700
N259        N  0.26234097  0.20336717  0.98054771    -0.37100
N260        N  0.12638611  0.92135361  0.33439706    -0.37100
C261        C  0.12516145  0.32609194  0.99508757    -0.03800
C262        C  0.14416487  0.30664143  0.03319719    -0.00900
C263        C  0.16573529  0.26189378  0.03127155     0.04100
C264        C  0.16633461  0.23741898  0.99224394    -0.03800
C265        C  0.15067028  0.25786962  0.28755253    -0.00900
C266        C  0.14321059  0.30680788  0.28291653     0.04100
C267        C  0.14518500  0.33315713  0.07304760     0.38700
C268        C  0.17363833  0.23254379  0.25333128     0.38700
C269        C  0.15582863  0.32839590  0.24284909     0.37100
C270        C  0.18981361  0.24258080  0.06796642     0.37100
N271        N  0.16888489  0.33971741  0.20950449    -0.37700
N272        N  0.21068382  0.22979049  0.09761149    -0.37700
N273        N  0.19393298  0.21667426  0.22478469    -0.37100
N274        N  0.14826256  0.35505015  0.10434712    -0.37100
C275        C  0.18074944  0.52251297  0.99538565    -0.03800
C276        C  0.21480035  0.50233167  0.31513564    -0.00900
C277        C  0.23831286  0.52271696  0.28139237     0.04100
C278        C  0.27299949  0.55519365  0.29426039    -0.03800
C279        C  0.25042431  0.56927124  0.97773655    -0.00900
C280        C  0.20611805  0.56590247  0.99859651     0.04100
C281        C  0.21753085  0.45078558  0.31913109     0.38700
C282        C  0.28144784  0.60958725  0.98426306     0.38700
C283        C  0.18927775  0.60499439  0.02417714     0.37100
C284        C  0.24385677  0.49395203  0.24378072     0.37100
N285        N  0.17469518  0.63793864  0.04211240    -0.37700
N286        N  0.24548124  0.46801293  0.21533988    -0.37700
N287        N  0.30650332  0.64185612  0.98862213    -0.37100
N288        N  0.22320475  0.40999651  0.32102616    -0.37100
C289        C  0.91440822  0.16618571  0.22009316    -0.03800
C290        C  0.87557087  0.16148858  0.19174112    -0.00900
C291        C  0.83999330  0.12466133  0.19773816     0.04100
C292        C  0.84218204  0.09217173  0.23347892    -0.03800
C293        C  0.86555742  0.11519601  0.26891023    -0.00900
C294        C  0.89957141  0.15264841  0.26232202     0.04100
C295        C  0.86755114  0.19973499  0.16161559     0.38700
C296        C  0.85219952  0.10524556  0.31255444     0.38700
C297        C  0.91511643  0.18010317  0.29938461     0.37100
C298        C  0.79501685  0.13281117  0.17677472     0.37100
N299        N  0.92672360  0.20062203  0.32988237    -0.37700
N300        N  0.75903964  0.14189052  0.16084599    -0.37700
N301        N  0.84225153  0.09845465  0.34778027    -0.37100
N302        N  0.86041887  0.23017992  0.13769144    -0.37100
C303        C  0.50186451  0.15536840  0.13892390    -0.03800
C304        C  0.50725318  0.12709144  0.17574521    -0.00900
C305        C  0.52830104  0.08213668  0.16977404     0.04100
C306        C  0.57476629  0.08059112  0.15342938    -0.03800
C307        C  0.58142079  0.11864160  0.12348381    -0.00900
C308        C  0.54238157  0.15038173  0.11141182     0.04100
C309        C  0.52045402  0.15291286  0.21377482     0.38700
C310        C  0.62803384  0.12741591  0.10813069     0.38700
C311        C  0.54521355  0.17691988  0.07236914     0.37100
C312        C  0.49738713  0.04504292  0.15387353     0.37100
N313        N  0.54688274  0.19849869  0.04113499    -0.37700
N314        N  0.47489788  0.01324727  0.14145953    -0.37700
N315        N  0.66630373  0.13657585  0.09883493    -0.37100
N316        N  0.53140303  0.17464301  0.24376048    -0.37100
C317        C  0.66260262  0.04236059  0.17117744    -0.03800
C318        C  0.67460707  0.06599181  0.21139866    -0.00900
C319        C  0.72071113  0.06167332  0.23357952     0.04100
C320        C  0.76197567  0.04236003  0.21372071    -0.03800
C321        C  0.75195207  0.03302838  0.16896870    -0.00900
C322        C  0.70474710  0.02668400  0.15058850     0.04100
C323        C  0.64558564  0.10543322  0.22464048     0.38700
C324        C  0.79076429  0.03573007  0.14022202     0.38700
C325        C  0.70086597  0.00195615  0.11060509     0.37100
C326        C  0.72713975  0.08357608  0.27506854     0.37100
N327        N  0.69799148  0.97921361  0.07987750    -0.37700
N328        N  0.73290722  0.10149011  0.30807125    -0.37700
N329        N  0.82300810  0.04215720  0.11889433    -0.37100
N330        N  0.62559903  0.13945861  0.23508202    -0.37100
C331        C  0.98975929  0.92979131  0.13248074    -0.03800
C332        C  0.98855165  0.97789094  0.14450204    -0.00900
C333        C  0.02957911  0.00265170  0.15301087     0.04100
C334        C  0.06653183  0.00213210  0.12274389    -0.03800
C335        C  0.06925478  0.95588332  0.10235937    -0.00900
C336        C  0.03223939  0.91933391  0.10863706     0.04100
C337        C  0.94751450  0.00584658  0.13483569     0.38700
C338        C  0.11260502  0.94293384  0.08159165     0.38700
C339        C  0.03690279  0.87288820  0.08899834     0.37100
C340        C  0.02982236  0.02961762  0.19186206     0.37100
N341        N  0.04068366  0.83553997  0.07350208    -0.37700
N342        N  0.02698709  0.05163007  0.22278867    -0.37700
N343        N  0.14825026  0.93082118  0.06728704    -0.37100
N344        N  0.91331097  0.02540007  0.12537414    -0.37100
C345        C  0.90668369  0.92250516  0.17123046    -0.03800
C346        C  0.92355680  0.95063749  0.20602241    -0.00900
C347        C  0.89898096  0.99323511  0.21807961     0.04100
C348        C  0.84880079  0.99870609  0.21072508    -0.03800
C349        C  0.82855257  0.95581137  0.19291053    -0.00900
C350        C  0.85636951  0.92144406  0.16976542     0.04100
C351        C  0.96591231  0.93732711  0.22947264     0.38700
C352        C  0.78003682  0.94457319  0.20182200     0.38700
C353        C  0.83302986  0.88097573  0.15047780     0.37100
C354        C  0.92536074  0.02634806  0.24423927     0.37100
N355        N  0.81377306  0.84778882  0.13687121    -0.37700
N356        N  0.94569564  0.04765541  0.27010928    -0.37700
N357        N  0.74045240  0.93954434  0.20943372    -0.37100
N358        N  0.99864090  0.92923312  0.25064578    -0.37100
C359        C  0.99913278  0.66501450  0.21422105    -0.03800
C360        C  0.02060305  0.65022346  0.25316831    -0.00900
C361        C  0.06028516  0.61833793  0.25298168     0.04100
C362        C  0.07878788  0.59846720  0.21409189    -0.03800
C363        C  0.07186112  0.63057809  0.18008319    -0.00900
C364        C  0.03113565  0.66173622  0.17883966     0.04100
C365        C  0.00692023  0.67239351  0.29325266     0.38700
C366        C  0.10925558  0.63528429  0.14924338     0.38700
C367        C  0.02728744  0.69511957  0.14419570     0.37100
C368        C  0.08777292  0.61627079  0.29172110     0.37100
N369        N  0.02726934  0.72287406  0.11707546    -0.37700
N370        N  0.10868561  0.61898975  0.32335574    -0.37700
N371        N  0.13962218  0.63925807  0.12503928    -0.37100
N372        N  0.99659169  0.68989032  0.32543238    -0.37100
C373        C  0.94128868  0.73977855  0.19284520    -0.03800
C374        C  0.97704463  0.77593304  0.20206909    -0.00900
C375        C  0.97947648  0.82369126  0.18187150     0.04100
C376        C  0.94668740  0.84162912  0.14981255    -0.03800
C377        C  0.91421539  0.80460664  0.13893521    -0.00900
C378        C  0.90707383  0.76065064  0.16347284     0.04100
C379        C  0.01168341  0.76682811  0.23522914     0.38700
C380        C  0.89845811  0.80477062  0.09539349     0.38700
C381        C  0.85969584  0.74273060  0.16187472     0.37100
C382        C  0.02190500  0.85070274  0.19022635     0.37100
N383        N  0.82032755  0.73215700  0.15958983    -0.37700
N384        N  0.05764385  0.86936893  0.19707726    -0.37700
N385        N  0.89068983  0.80378031  0.05921854    -0.37100
N386        N  0.04062692  0.76298881  0.26131921    -0.37100
C387        C  0.33787191  0.98894544  0.20624539    -0.03800
C388        C  0.35151712  0.96640439  0.24508836    -0.00900
C389        C  0.38925375  0.93212523  0.24727003     0.04100
C390        C  0.41863186  0.92120091  0.21140188    -0.03800
C391        C  0.39522407  0.93352180  0.17200994    -0.00900
C392        C  0.35074299  0.95890571  0.17188623     0.04100
C393        C  0.32043428  0.96908181  0.28092754     0.38700
C394        C  0.40963263  0.91405392  0.13145935     0.38700
C395        C  0.31183276  0.93523200  0.15029749     0.37100
C396        C  0.39190836  0.90416269  0.28527569     0.37100
N397        N  0.28144138  0.91337030  0.13484127    -0.37700
N398        N  0.39166568  0.88292277  0.31647629    -0.37700
N399        N  0.41706909  0.89963128  0.09745555    -0.37100
N400        N  0.29605728  0.96651119  0.30999756    -0.37100
C401        C  0.51218288  0.92974340  0.20343997    -0.03800
C402        C  0.55952052  0.91241089  0.19529829    -0.00900
C403        C  0.59547581  0.94462146  0.18246208     0.04100
C404        C  0.58846605  0.99431739  0.18741311    -0.03800
C405        C  0.55560839  0.00485100  0.21909013    -0.00900
C406        C  0.51350534  0.97812193  0.21982215     0.04100
C407        C  0.57204265  0.86276231  0.20090509     0.38700
C408        C  0.56540985  0.03961125  0.25235385     0.38700
C409        C  0.47374727  0.00292009  0.23821859     0.37100
C410        C  0.63923734  0.92624779  0.16586524     0.37100
N411        N  0.44486973  0.02581113  0.25412327    -0.37700
N412        N  0.67334565  0.91043145  0.15146576    -0.37700
N413        N  0.57167660  0.06529864  0.28090519    -0.37100
N414        N  0.58079760  0.82287503  0.20550695    -0.37100
C415        C  0.34961562  0.58532045  0.12293802    -0.03800
C416        C  0.39865951  0.58375956  0.13143234    -0.00900
C417        C  0.42170679  0.62649996  0.14234362     0.04100
C418        C  0.42532585  0.65996483  0.10973533    -0.03800
C419        C  0.38000024  0.66251565  0.08755461    -0.00900
C420        C  0.34088738  0.62867310  0.09843793     0.04100
C421        C  0.42394140  0.55187472  0.10375977     0.38700
C422        C  0.37175250  0.70139155  0.05858185     0.38700
C423        C  0.29291342  0.64266312  0.09075913     0.37100
C424        C  0.41073926  0.64770372  0.18324796     0.37100
N425        N  0.25466201  0.65661924  0.08743618    -0.37700
N426        N  0.40325481  0.66512081  0.21612897    -0.37700
N427        N  0.36500341  0.73294046  0.03575761    -0.37100
N428        N  0.43988268  0.52540419  0.07936202    -0.37100
C429        C  0.46714200  0.74815230  0.13012522    -0.03800
C430        C  0.50133582  0.78656351  0.12728820    -0.00900
C431        C  0.49517164  0.83366153  0.14717353     0.04100
C432        C  0.46824573  0.84275486  0.18561852    -0.03800
C433        C  0.43278672  0.80580780  0.18842022    -0.00900
C434        C  0.42918033  0.76426453  0.15866742     0.04100
C435        C  0.54745747  0.77760006  0.10988543     0.38700
C436        C  0.39480155  0.81278125  0.21844138     0.38700
C437        C  0.38253648  0.74357171  0.15510948     0.37100
C438        C  0.51167296  0.87449965  0.12409824     0.37100
N439        N  0.34387671  0.72987937  0.15404924    -0.37700
N440        N  0.52191033  0.91048961  0.10897384    -0.37700
N441        N  0.36251809  0.81663983  0.24070601    -0.37100
N442        N  0.58606256  0.77112896  0.09926223    -0.37100
C443        C  0.91524444  0.41638684  0.12286629    -0.03800
C444        C  0.88169931  0.42322367  0.15652828    -0.00900
C445        C  0.84247408  0.45582245  0.15098639     0.04100
C446        C  0.83954753  0.48551565  0.11444058    -0.03800
C447        C  0.85866460  0.46056235  0.07809541    -0.00900
C448        C  0.89370147  0.42417254  0.08285012     0.04100
C449        C  0.87602126  0.38694169  0.18846588     0.38700
C450        C  0.83910170  0.46451175  0.03620805     0.38700
C451        C  0.90197083  0.39003915  0.04850101     0.37100
C452        C  0.80235153  0.45329326  0.17962447     0.37100
N453        N  0.90746345  0.36324584  0.02071092    -0.37700
N454        N  0.77108925  0.45038239  0.20314350    -0.37700
N455        N  0.82757713  0.46143145  0.00106360    -0.37100
N456        N  0.86763329  0.35779164  0.21325833    -0.37100
C457        C  0.85291420  0.57525771  0.14011783    -0.03800
C458        C  0.88170696  0.56339099  0.17610380    -0.00900
C459        C  0.92025480  0.59263313  0.18931986     0.04100
C460        C  0.92434698  0.64140118  0.17654921    -0.03800
C461        C  0.90111990  0.65072034  0.13789073    -0.00900
C462        C  0.86228171  0.62256525  0.12453909     0.04100
C463        C  0.86908416  0.52786776  0.20693857     0.38700
C464        C  0.92293036  0.68002900  0.10589584     0.38700
C465        C  0.82540220  0.64792643  0.10294791     0.37100
C466        C  0.95344243  0.57136768  0.21882923     0.37100
N467        N  0.79331571  0.66716575  0.08832831    -0.37700
N468        N  0.97614612  0.55112843  0.24348324    -0.37700
N469        N  0.93938581  0.70185073  0.07856978    -0.37100
N470        N  0.86484592  0.50135390  0.23476332    -0.37100
C471        C  0.56766533  0.50349236  0.20666996    -0.03800
C472        C  0.51764680  0.51182917  0.21180049    -0.00900
C473        C  0.48737516  0.47992429  0.23333642     0.04100
C474        C  0.49090599  0.42992126  0.22712649    -0.03800
C475        C  0.54056214  0.41841394  0.22816952    -0.00900
C476        C  0.57795109  0.45491688  0.22097861     0.04100
C477        C  0.49812739  0.55811004  0.20929966     0.38700
C478        C  0.55328943  0.37200351  0.24448338     0.38700
C479        C  0.62573074  0.44168892  0.23111877     0.37100
C480        C  0.46289821  0.49978210  0.26997928     0.37100
N481        N  0.66371601  0.42801847  0.23706754    -0.37700
N482        N  0.44655149  0.51726984  0.30002628    -0.37700
N483        N  0.56304097  0.33503987  0.25812548    -0.37100
N484        N  0.48193376  0.59530541  0.21139278    -0.37100
C485        C  0.58048523  0.59224962  0.17406878    -0.03800
C486        C  0.55708160  0.57908304  0.13607724    -0.00900
C487        C  0.52594241  0.61086618  0.11448142     0.04100
C488        C  0.51185994  0.65756599  0.13205738    -0.03800
C489        C  0.53621060  0.67029444  0.16989977    -0.00900
C490        C  0.57413869  0.64217879  0.18572430     0.04100
C491        C  0.56329757  0.53138294  0.11880342     0.38700
C492        C  0.52353878  0.71176136  0.19501477     0.38700
C493        C  0.61137345  0.67177088  0.20340973     0.37100
C494        C  0.51182941  0.59338609  0.07255830     0.37100
N495        N  0.63893355  0.70027909  0.21341373    -0.37700
N496        N  0.50399798  0.57738104  0.03898883    -0.37700
N497        N  0.51507836  0.74384075  0.21705405    -0.37100
N498        N  0.56593769  0.49428754  0.10274799    -0.37100
C499        C  0.66036000  0.54423710  0.18059464    -0.03800
C500        C  0.69377244  0.58293797  0.17438353    -0.00900
C501        C  0.74361011  0.57711340  0.16410253     0.04100
C502        C  0.76123180  0.54155539  0.13484631    -0.03800
C503        C  0.72457026  0.50587488  0.12924510    -0.00900
C504        C  0.67861134  0.50514650  0.15317769     0.04100
C505        C  0.67787325  0.62509416  0.15278903     0.38700
C506        C  0.73488214  0.46698655  0.10011539     0.38700
C507        C  0.65051041  0.46336892  0.14500779     0.37100
C508        C  0.77349715  0.61458874  0.17961625     0.37100
N509        N  0.63167110  0.42788766  0.13669972    -0.37700
N510        N  0.79660804  0.64457480  0.19408659    -0.37700
N511        N  0.74274725  0.43505283  0.07768360    -0.37100
N512        N  0.66972992  0.65908305  0.13333851    -0.37100
C513        C  0.60192620  0.82142873  0.01759891    -0.03800
C514        C  0.65030375  0.81087885  0.02275085    -0.00900
C515        C  0.67364058  0.78422847  0.99143887     0.04100
C516        C  0.47633154  0.71979376  0.31090145    -0.03800
C517        C  0.43839042  0.74662283  0.32778723    -0.00900
C518        C  0.44785324  0.78707522  0.35420725     0.04100
C519        C  0.67446763  0.82678633  0.06054616     0.38700
C520        C  0.39069621  0.73648180  0.31367559     0.38700
C521        C  0.40991319  0.81228887  0.37505325     0.37100
C522        C  0.70739509  0.80974992  0.96627037     0.37100
N523        N  0.37975582  0.83306886  0.39172597    -0.37700
N524        N  0.73186826  0.83079726  0.94375537    -0.37700
N525        N  0.35273595  0.73026364  0.30072055    -0.37100
N526        N  0.69054641  0.83883556  0.09277436    -0.37100
C527        C  0.74173557  0.03822099  0.01556403    -0.03800
C528        C  0.73629772  0.85897008  0.25790365    -0.00900
C529        C  0.68940696  0.84971401  0.24297699     0.04100
C530        C  0.65552036  0.84217320  0.27541597    -0.03800
C531        C  0.67500647  0.08954365  0.99793932    -0.00900
C532        C  0.71979802  0.08335490  0.01877143     0.04100
C533        C  0.77770326  0.84238313  0.23577605     0.38700
C534        C  0.65057376  0.13453734  0.99911651     0.38700
C535        C  0.74202890  0.12123578  0.04311572     0.37100
C536        C  0.68420711  0.82138636  0.20460424     0.37100
N537        N  0.76051839  0.15161876  0.06205126    -0.37700
N538        N  0.68062631  0.79688967  0.17490361    -0.37700
N539        N  0.63233635  0.17141637  0.99896427    -0.37100
N540        N  0.81230912  0.82682740  0.22209854    -0.37100
C541        C  0.81498164  0.81057548  0.37539206    -0.03800
C542        C  0.80101492  0.83041215  0.01991965    -0.00900
C543        C  0.79402532  0.78204834  0.02768688     0.04100
C544        C  0.81042603  0.74974722  0.99713304    -0.03800
C545        C  0.79235413  0.75463751  0.32050271    -0.00900
C546        C  0.82331396  0.78914796  0.33465541     0.04100
C547        C  0.78225876  0.86524267  0.04950050     0.38700
C548        C  0.79017362  0.74021300  0.27620008     0.38700
C549        C  0.86245012  0.80098821  0.30661294     0.37100
C550        C  0.77066154  0.76665733  0.06599944     0.37100
N551        N  0.89377551  0.80984670  0.28439752    -0.37700
N552        N  0.75110863  0.75645201  0.09693074    -0.37700
N553        N  0.78549047  0.72900563  0.24096338    -0.37100
N554        N  0.76718099  0.89383660  0.07242812    -0.37100
C555        C  0.72574269  0.53772753  0.29199000    -0.03800
C556        C  0.72440940  0.51139406  0.97116751    -0.00900
C557        C  0.68878878  0.51381774  0.00291160     0.04100
C558        C  0.67884231  0.55794396  0.02294857    -0.03800
C559        C  0.67245766  0.58775444  0.33191736    -0.00900
C560        C  0.70156639  0.58100462  0.29698962     0.04100
C561        C  0.74160506  0.46535719  0.95766220     0.38700
C562        C  0.66455297  0.63577585  0.34739221     0.38700
C563        C  0.70766125  0.61983673  0.26777171     0.37100
C564        C  0.66378030  0.47134803  0.01578945     0.37100
N565        N  0.71380481  0.65155664  0.24537995    -0.37700
N566        N  0.64355292  0.43753153  0.02601861    -0.37700
N567        N  0.65673962  0.67316238  0.36123752    -0.37100
N568        N  0.75400365  0.42719002  0.94897735    -0.37100
O569        O  0.87183742  0.67765423  0.58291210    -0.56300
C570        C  0.75885839  0.58574810  0.61839655     0.76400
O571        O  0.86402257  0.55963427  0.38662630    -0.57400
C572        C  0.91574731  0.66893851  0.58322454     0.76300
C573        C  0.79082918  0.68073644  0.34814823     0.78700
Cd574      Cd  0.84111206  0.61961966  0.64812875     1.37500
O575        O  0.79249390  0.55546421  0.61759801    -0.56300
O576        O  0.78959879  0.67697775  0.64939403    -0.55100
C577        C  0.82359173  0.55512534  0.40536740     0.78700
O578        O  0.83368374  0.67467737  0.35935338    -0.57400
O579        O  0.78990073  0.57864515  0.25967273    -0.55900
O580        O  0.92465001  0.63800518  0.61234693    -0.55900
O581        O  0.78993210  0.57259554  0.38359275    -0.55100
O582        O  0.88920424  0.94858744  0.43033386    -0.56300
C583        C  0.77716214  0.90112298  0.31735610     0.76400
O584        O  0.88325193  0.01678490  0.61176068    -0.57400
C585        C  0.92089155  0.91535607  0.42754090     0.76300
C586        C  0.90396667  0.86601052  0.64765265     0.78700
Cd587      Cd  0.87838326  0.95265079  0.67194161     1.37500
O588        O  0.76868644  0.92661222  0.35065860    -0.56300
O589        O  0.80828258  0.89071845  0.40127029    -0.55100
C590        C  0.83998591  0.01833377  0.59730450     0.78700
O591        O  0.88932037  0.89381414  0.61879751    -0.57400
O592        O  0.81880388  0.90650376  0.64578616    -0.55900
O593        O  0.92764287  0.90296688  0.38862308    -0.55900
O594        O  0.81188993  0.99625831  0.62143965    -0.55100
O595        O  0.52176023  0.87182589  0.62102023    -0.56300
C596        C  0.62814437  0.86566850  0.68218022     0.76400
O597        O  0.61261269  0.95345516  0.41197283    -0.57400
C598        C  0.49821424  0.90419792  0.60314037     0.76300
C599        C  0.50817635  0.85089436  0.37348253     0.78700
Cd600      Cd  0.55443925  0.92642097  0.34278513     1.37500
O601        O  0.62019715  0.89517604  0.65206618    -0.56300
O602        O  0.54470374  0.85163015  0.72489751    -0.55100
C603        C  0.59926465  0.99564885  0.42112404     0.78700
O604        O  0.48143913  0.88621341  0.36564453    -0.57400
O605        O  0.60627466  0.86956033  0.33029707    -0.55900
O606        O  0.50083035  0.94370876  0.62420106    -0.55900
O607        O  0.56731002  0.00810554  0.39359994    -0.55100
O608        O  0.51078282  0.66205428  0.59369296    -0.56300
C609        C  0.59699760  0.56726691  0.59103759     0.76400
O610        O  0.56409361  0.53949300  0.34677799    -0.57400
C611        C  0.47589410  0.67412079  0.61618897     0.76300
C612        C  0.49235931  0.68476038  0.41022479     0.78700
Cd613      Cd  0.53827560  0.62256332  0.33083995     1.37500
O614        O  0.56531532  0.54941846  0.61574763    -0.56300
O615        O  0.46821552  0.66097888  0.38285638    -0.55100
C616        C  0.60004838  0.55873196  0.36492189     0.78700
O617        O  0.53649945  0.68625246  0.39922811    -0.57400
O618        O  0.60558677  0.61020961  0.60285341    -0.55900
O619        O  0.45349811  0.63770280  0.31557612    -0.55900
O620        O  0.59671368  0.63129410  0.70419965    -0.55100
C621        C  0.60879509  0.54442239  0.54317131    -0.00900
C622        C  0.81945561  0.53584043  0.45382937    -0.00900
C623        C  0.47451003  0.69019329  0.45911667    -0.00900
C624        C  0.47695048  0.90133121  0.55553726    -0.00900
C625        C  0.95073286  0.68031276  0.54299025    -0.00900
C626        C  0.95264504  0.89995619  0.46905093    -0.00900
C627        C  0.61286581  0.02634163  0.46575243    -0.00900
C628        C  0.82728915  0.04172493  0.55091612    -0.00900
O629        O  0.04201775  0.37777702  0.62378239    -0.56300
C630        C  0.09488433  0.51893210  0.60231701     0.76400
O631        O  0.99669484  0.45649658  0.39385757    -0.57400
C632        C  0.11100601  0.38193266  0.31610508     0.76300
C633        C  0.15288041  0.51655020  0.36789543     0.78700
Cd634      Cd  0.07475322  0.46728640  0.34267588     1.37500
O635        O  0.05276889  0.50771922  0.61417163    -0.56300
O636        O  0.11355167  0.39125878  0.71641869    -0.55100
C637        C  0.00690477  0.42034093  0.41750167     0.78700
O638        O  0.11495397  0.54100157  0.36931515    -0.57400
O639        O  0.12594795  0.50297652  0.62777099    -0.55900
O640        O  0.13079496  0.41149699  0.34043733    -0.55900
O641        O  0.04781159  0.40583623  0.40763622    -0.55100
O642        O  0.08649923  0.17394625  0.34933901    -0.56300
C643        C  0.10491185  0.06312118  0.39969553     0.76400
O644        O  0.00586659  0.12711708  0.59430930    -0.57400
C645        C  0.11869011  0.18635200  0.32355980     0.76300
C646        C  0.13816897  0.05477690  0.60532234     0.78700
Cd647      Cd  0.06674985  0.10735472  0.31119589     1.37500
O648        O  0.10846251  0.10579520  0.38648589    -0.56300
O649        O  0.10819376  0.07431201  0.25354918    -0.55100
C650        C  0.00580871  0.17157111  0.58449373     0.78700
O651        O  0.10394290  0.03382684  0.62298279    -0.57400
O652        O  0.08254744  0.03778053  0.37222570    -0.55900
O653        O  0.13940387  0.17105627  0.60969748    -0.55900
O654        O  0.03390557  0.19468667  0.60859077    -0.55100
O655        O  0.44938479  0.17992900  0.63784009    -0.56300
C656        C  0.33485220  0.07552329  0.58611243     0.76400
O657        O  0.38640957  0.17275037  0.39763034    -0.57400
C658        C  0.42414632  0.21743145  0.63478877     0.76300
C659        C  0.28464473  0.06734952  0.36791038     0.78700
Cd660      Cd  0.37994462  0.13741663  0.66189169     1.37500
O661        O  0.37607124  0.07143305  0.60354516    -0.56300
O662        O  0.31453808  0.14304814  0.70697806    -0.55100
C663        C  0.43118265  0.17163902  0.39682033     0.78700
O664        O  0.32148191  0.04465905  0.35678292    -0.57400
O665        O  0.31246857  0.10959074  0.60319278    -0.55900
O666        O  0.30909278  0.17812046  0.35833458    -0.55900
O667        O  0.44580535  0.14926144  0.36334786    -0.55100
O668        O  0.33862149  0.36197689  0.65180039    -0.56300
C669        C  0.41835446  0.39555871  0.58604538     0.76400
O670        O  0.35909195  0.48364134  0.42536851    -0.57400
C671        C  0.31431891  0.35461643  0.68459603     0.76300
C672        C  0.34718859  0.39309502  0.38707036     0.78700
Cd673      Cd  0.38232031  0.43034481  0.67805131     1.37500
O674        O  0.38490204  0.42612595  0.59360821    -0.56300
O675        O  0.43379779  0.41120366  0.73941330    -0.55100
C676        C  0.32544600  0.51401394  0.42888097     0.78700
O677        O  0.38202227  0.41751657  0.40099126    -0.57400
O678        O  0.43412988  0.37849489  0.62051697    -0.55900
O679        O  0.31926968  0.48558220  0.29591550    -0.55900
O680        O  0.31062175  0.52712294  0.39247608    -0.55100
C681        C  0.10419781  0.54429439  0.55664190    -0.00900
C682        C  0.31427759  0.53879978  0.47427478    -0.00900
C683        C  0.45922977  0.17902643  0.44105611    -0.00900
C684        C  0.44474757  0.39061034  0.54012262    -0.00900
C685        C  0.10935217  0.05057859  0.44960431    -0.00900
C686        C  0.32320724  0.04993970  0.54037633    -0.00900
C687        C  0.97788264  0.18998784  0.54139041    -0.00900
C688        C  0.97738975  0.40463608  0.46114331    -0.00900
C689        C  0.97922444  0.24666038  0.52046082    -0.03800
C690        C  0.96917253  0.28929124  0.54437114    -0.00900
C691        C  0.97127339  0.33794756  0.52688696     0.04100
C692        C  0.97789697  0.34919330  0.48177846    -0.03800
C693        C  0.98633863  0.30764337  0.45736804    -0.00900
C694        C  0.98900104  0.25951774  0.47531471     0.04100
C695        C  0.95425069  0.28406691  0.58792169     0.38700
C696        C  0.99494830  0.31444045  0.41219746     0.38700
C697        C  0.00353046  0.22575591  0.44312522     0.37100
C698        C  0.96538075  0.37726486  0.55680822     0.37100
N699        N  0.01526728  0.20381558  0.41358627    -0.37700
N700        N  0.95961366  0.40893400  0.58009167    -0.37700
N701        N  0.00310713  0.31836299  0.37627891    -0.37100
N702        N  0.94061804  0.28229988  0.62254360    -0.37100
C703        C  0.07700549  0.09525123  0.46711924    -0.03800
C704        C  0.09277607  0.13297947  0.49410653    -0.00900
C705        C  0.06004565  0.16563130  0.51238246     0.04100
C706        C  0.00989842  0.15917061  0.51017537    -0.03800
C707        C  0.99451425  0.13009908  0.47594163    -0.00900
C708        C  0.02831297  0.10328137  0.45198197     0.04100
C709        C  0.14050159  0.15016066  0.49319068     0.38700
C710        C  0.94998210  0.14052363  0.45446152     0.38700
C711        C  0.01309660  0.09250062  0.40844328     0.37100
C712        C  0.07757161  0.21037641  0.52938571     0.37100
N713        N  0.99875118  0.08917104  0.37380815    -0.37700
N714        N  0.09046805  0.24691572  0.54160320    -0.37700
N715        N  0.91810607  0.14795551  0.43191963    -0.37100
N716        N  0.17458676  0.17283624  0.49150447    -0.37100
C717        C  0.26690299  0.04882818  0.51756523    -0.00600
C718        C  0.22787274  0.01768590  0.52890950    -0.00900
C719        C  0.17965584  0.01803695  0.50876128     0.04100
C720        C  0.16525530  0.04698767  0.47228483    -0.03800
C721        C  0.20504568  0.07513547  0.45941064    -0.00900
C722        C  0.25139526  0.07773937  0.48157370     0.04100
C723        C  0.23639341  0.98227884  0.56121634     0.38700
C724        C  0.19688453  0.10878858  0.42590723     0.38700
C725        C  0.28009814  0.11709550  0.46907087     0.37100
C726        C  0.14473910  0.98720869  0.52761839     0.37100
N727        N  0.30100404  0.14935950  0.45688447    -0.37700
N728        N  0.11810846  0.96195875  0.54387554    -0.37700
N729        N  0.19121887  0.13971055  0.40242988    -0.37100
N730        N  0.24035343  0.95189202  0.58571707    -0.37100
C731        C  0.42875023  0.13992566  0.46690070    -0.03800
C732        C  0.41007716  0.09529920  0.44903928    -0.00900
C733        C  0.37575176  0.06749063  0.47099993     0.04100
C734        C  0.35870776  0.08140915  0.51175368    -0.03800
C735        C  0.37623953  0.12746831  0.52562374    -0.00900
C736        C  0.41745177  0.14695673  0.50949182     0.04100
C737        C  0.42709813  0.07434886  0.40913121     0.38700
C738        C  0.34554870  0.16325702  0.54375090     0.38700
C739        C  0.44778461  0.17425326  0.53719204     0.37100
C740        C  0.35422396  0.02873566  0.44748925     0.37100
N741        N  0.47392120  0.19719163  0.55685575    -0.37700
N742        N  0.34002877  0.99768439  0.42664213    -0.37700
N743        N  0.32183734  0.19325017  0.55724373    -0.37100
N744        N  0.43998366  0.05513350  0.37846036    -0.37100
C745        C  0.45147648  0.33550399  0.51498775    -0.03800
C746        C  0.42075301  0.29492228  0.52019380    -0.00900
C747        C  0.41744778  0.25451237  0.48952590     0.04100
C748        C  0.45587169  0.23645038  0.46346485    -0.03800
C749        C  0.48953417  0.27549326  0.45971967    -0.00900
C750        C  0.48373937  0.32398177  0.47991387     0.04100
C751        C  0.38888491  0.29518975  0.55589072     0.38700
C752        C  0.52983108  0.26789292  0.43249910     0.38700
C753        C  0.51086696  0.36259748  0.46226288     0.37100
C754        C  0.37058314  0.24115110  0.47677579     0.37100
N755        N  0.53280072  0.39299124  0.44743987    -0.37700
N756        N  0.33197579  0.23576277  0.46551752    -0.37700
N757        N  0.56286729  0.26325531  0.41125132    -0.37100
N758        N  0.36236069  0.29611429  0.58380913    -0.37100
C759        C  0.33808310  0.49982139  0.50444630    -0.03800
C760        C  0.32452495  0.45077777  0.50409876    -0.00900
C761        C  0.35906003  0.41316267  0.50739872     0.04100
C762        C  0.40868700  0.42303093  0.51274988    -0.03800
C763        C  0.41858287  0.47180080  0.50845145    -0.00900
C764        C  0.38394647  0.50640072  0.51931730     0.04100
C765        C  0.27543368  0.43798676  0.50562178     0.38700
C766        C  0.44911387  0.48147161  0.47320910     0.38700
C767        C  0.38383206  0.52755896  0.56120325     0.37100
C768        C  0.34170188  0.36580794  0.50100856     0.37100
N769        N  0.37961727  0.54445413  0.59478099    -0.37700
N770        N  0.32224508  0.33032791  0.49457137    -0.37700
N771        N  0.47243818  0.48638899  0.44346957    -0.37100
N772        N  0.23687131  0.42480154  0.50778594    -0.37100
C773        C  0.07055034  0.50991365  0.52936348    -0.03800
C774        C  0.03317807  0.52389384  0.50156966    -0.00900
C775        C  0.99763806  0.49098300  0.48843775     0.04100
C776        C  0.00446208  0.44047556  0.49195660    -0.03800
C777        C  0.04845290  0.42648105  0.51104965    -0.00900
C778        C  0.07866155  0.45980493  0.53128921     0.04100
C779        C  0.04065538  0.56192809  0.47124857     0.38700
C780        C  0.06629222  0.37850585  0.50598444     0.38700
C781        C  0.12401683  0.44389071  0.54710796     0.37100
C782        C  0.96180439  0.51065673  0.46051848     0.37100
N783        N  0.16129338  0.43461745  0.55968917    -0.37700
N784        N  0.93853272  0.53016319  0.43575416    -0.37700
N785        N  0.07847210  0.33952145  0.50127609    -0.37100
N786        N  0.04402551  0.58849004  0.44331145    -0.37100
C787        C  0.15920389  0.54404908  0.53431658    -0.03800
C788        C  0.19980949  0.56715612  0.55288325    -0.00900
C789        C  0.24681006  0.56909600  0.53260894     0.04100
C790        C  0.25889637  0.54602525  0.49250708    -0.03800
C791        C  0.21853460  0.52369436  0.47366983    -0.00900
C792        C  0.17112450  0.52441227  0.49211609     0.04100
C793        C  0.19350217  0.59097673  0.59353919     0.38700
C794        C  0.22707700  0.49221850  0.43795511     0.38700
C795        C  0.13539985  0.50266444  0.46548840     0.37100
C796        C  0.28182099  0.59842091  0.55352318     0.37100
N797        N  0.10683403  0.48329818  0.44523767    -0.37700
N798        N  0.30654640  0.62424912  0.57188279    -0.37700
N799        N  0.23555049  0.46413951  0.41194473    -0.37100
N800        N  0.18990182  0.61054403  0.62598808    -0.37100
C801        C  0.44091722  0.26311181  0.65476841    -0.03800
C802        C  0.48614994  0.28391516  0.64906917    -0.00900
C803        C  0.38585207  0.31833052  0.37934894     0.04100
C804        C  0.46815572  0.34452832  0.70400113    -0.03800
C805        C  0.42919372  0.31659642  0.71538713    -0.00900
C806        C  0.41290983  0.28088684  0.68816714     0.04100
C807        C  0.41996842  0.25485556  0.33694875     0.38700
C808        C  0.40134630  0.32766667  0.75229103     0.38700
C809        C  0.36682413  0.26142102  0.69597980     0.37100
C810        C  0.43253849  0.34022484  0.37851971     0.37100
N811        N  0.33076830  0.24385300  0.70187439    -0.37700
N812        N  0.46967631  0.35715941  0.37574203    -0.37700
N813        N  0.37673344  0.33744944  0.78007361    -0.37100
N814        N  0.45550933  0.24213038  0.32279895    -0.37100
C815        C  0.18493039  0.05718303  0.62733332    -0.03800
C816        C  0.19719606  0.02771613  0.66203265    -0.00900
C817        C  0.23442421  0.04176766  0.69026518     0.04100
C818        C  0.25652351  0.08666761  0.68556837    -0.03800
C819        C  0.21835703  0.08708845  0.32086884    -0.00900
C820        C  0.19419585  0.06908216  0.28618736     0.04100
C821        C  0.17408406  0.98201784  0.66632707     0.38700
C822        C  0.22778010  0.13777483  0.32038277     0.38700
C823        C  0.19559556  0.09556007  0.24712360     0.37100
C824        C  0.24625615  0.01253680  0.72606816     0.37100
N825        N  0.19783723  0.11898180  0.21734888    -0.37700
N826        N  0.25383991  0.98922021  0.75544330    -0.37700
N827        N  0.23058728  0.17850842  0.31637159    -0.37100
N828        N  0.15508577  0.94559925  0.66820552    -0.37100
C829        C  0.12761743  0.33320606  0.31825159    -0.03800
C830        C  0.12780498  0.31215500  0.35890810    -0.00900
C831        C  0.12822417  0.26299611  0.36205687     0.04100
C832        C  0.13662839  0.23513497  0.32538405    -0.03800
C833        C  0.16997272  0.26578910  0.60866216    -0.00900
C834        C  0.14462161  0.30641461  0.59590932     0.04100
C835        C  0.12832038  0.34069172  0.39767976     0.38700
C836        C  0.20607354  0.24731348  0.58079420     0.38700
C837        C  0.15892074  0.32980904  0.55715696     0.37100
C838        C  0.11930180  0.24220435  0.40323539     0.37100
N839        N  0.17332131  0.34418558  0.52525588    -0.37700
N840        N  0.11242566  0.22790810  0.43701845    -0.37700
N841        N  0.23475111  0.23713974  0.55629150    -0.37100
N842        N  0.13095164  0.36374869  0.42830659    -0.37100
C843        C  0.19662761  0.53318960  0.34684451    -0.03800
C844        C  0.20701871  0.35007843  0.73209767    -0.00900
C845        C  0.24441609  0.32020327  0.71981403     0.04100
C846        C  0.26849459  0.32943100  0.68147231    -0.03800
C847        C  0.25827176  0.58879830  0.32552447    -0.00900
C848        C  0.21622454  0.57971248  0.34896413     0.04100
C849        C  0.18419501  0.34154985  0.77246867     0.38700
C850        C  0.28881311  0.62760698  0.33802337     0.38700
C851        C  0.19531420  0.61722577  0.37402722     0.37100
C852        C  0.25045435  0.27562131  0.74163336     0.37100
N853        N  0.17852616  0.64967905  0.39105443    -0.37700
N854        N  0.25212359  0.23959217  0.75920009    -0.37700
N855        N  0.31319583  0.65812116  0.34964945    -0.37100
N856        N  0.16954417  0.33260236  0.80577244    -0.37100
C857        C  0.92427714  0.16925478  0.54895397    -0.03800
C858        C  0.88742557  0.16720160  0.51813659    -0.00900
C859        C  0.85431421  0.12770307  0.51705431     0.04100
C860        C  0.85144129  0.09494498  0.55204868    -0.03800
C861        C  0.87048467  0.11632842  0.59048900    -0.00900
C862        C  0.90721646  0.15154395  0.58894932     0.04100
C863        C  0.87829732  0.20955838  0.49316515     0.38700
C864        C  0.84844578  0.10841241  0.63168237     0.38700
C865        C  0.92172360  0.17373936  0.62905296     0.37100
C866        C  0.81809514  0.12824284  0.48437073     0.37100
N867        N  0.93268270  0.19017614  0.66165156    -0.37700
N868        N  0.78913535  0.13209247  0.45827021    -0.37700
N869        N  0.83228921  0.10251761  0.66509280    -0.37100
N870        N  0.87018394  0.24337513  0.47350043    -0.37100
C871        C  0.51169554  0.15481240  0.44325091    -0.03800
C872        C  0.52543080  0.13390817  0.48176802    -0.00900
C873        C  0.54020632  0.08608640  0.47753289     0.04100
C874        C  0.58395966  0.07707527  0.45771197    -0.03800
C875        C  0.58530821  0.10780562  0.42008282    -0.00900
C876        C  0.54649896  0.14259947  0.41072912     0.04100
C877        C  0.55605493  0.16433989  0.50710206     0.38700
C878        C  0.62177550  0.10061227  0.38885774     0.38700
C879        C  0.54481160  0.16570462  0.36987095     0.37100
C880        C  0.50465974  0.05021329  0.46854958     0.37100
N881        N  0.54449484  0.18422661  0.33702946    -0.37700
N882        N  0.48000986  0.01779752  0.46283585    -0.37700
N883        N  0.65000997  0.09544296  0.36272662    -0.37100
N884        N  0.58154244  0.18877012  0.52629781    -0.37100
C885        C  0.66944912  0.03285993  0.48706334    -0.03800
C886        C  0.68256578  0.03655382  0.53314494    -0.00900
C887        C  0.72959811  0.04884943  0.55029127     0.04100
C888        C  0.77221858  0.04213624  0.52738054    -0.03800
C889        C  0.76088947  0.03227431  0.48201156    -0.00900
C890        C  0.71244806  0.02944604  0.46313853     0.04100
C891        C  0.65634662  0.01200463  0.56576025     0.38700
C892        C  0.79854742  0.02558670  0.45170625     0.38700
C893        C  0.70749744  0.01797661  0.41819444     0.37100
C894        C  0.73369493  0.06477487  0.59427010     0.37100
N895        N  0.70456038  0.00780307  0.38239834    -0.37700
N896        N  0.73572354  0.07772184  0.62938763    -0.37700
N897        N  0.82504832  0.02075438  0.42410265    -0.37100
N898        N  0.63903381  0.99142783  0.59352403    -0.37100
C899        C  0.00125067  0.92986761  0.46250887    -0.03800
C900        C  0.99676393  0.97872431  0.45473437    -0.00900
C901        C  0.03215927  0.00750388  0.47287541     0.04100
C902        C  0.07797868  0.00229051  0.45701920    -0.03800
C903        C  0.08693858  0.95188564  0.44789042    -0.00900
C904        C  0.04951551  0.91539239  0.45424016     0.04100
C905        C  0.98725530  0.98782472  0.40990287     0.38700
C906        C  0.13342619  0.93550554  0.43724269     0.38700
C907        C  0.05972578  0.86555456  0.44720959     0.37100
C908        C  0.02811192  0.02470714  0.51623138     0.37100
N909        N  0.06809711  0.82574194  0.44104437    -0.37700
N910        N  0.02681447  0.04016560  0.55052506    -0.37700
N911        N  0.16950831  0.91785281  0.43044799    -0.37100
N912        N  0.97965629  0.99208598  0.37375206    -0.37100
C913        C  0.92223439  0.92564324  0.50578785    -0.03800
C914        C  0.93628623  0.96883332  0.52533733    -0.00900
C915        C  0.90609413  0.00903937  0.52019819     0.04100
C916        C  0.85739334  0.00274195  0.52712121    -0.03800
C917        C  0.84118744  0.95453872  0.52321891    -0.00900
C918        C  0.87242999  0.91789460  0.50910510     0.04100
C919        C  0.95836959  0.96371885  0.56664550     0.38700
C920        C  0.79211002  0.94349581  0.53056968     0.38700
C921        C  0.85282510  0.87570419  0.49110120     0.37100
C922        C  0.91306241  0.03478302  0.48177433     0.37100
N923        N  0.84054684  0.83980308  0.47733704    -0.37700
N924        N  0.91572929  0.05055069  0.44800067    -0.37700
N925        N  0.75222602  0.93726378  0.53627988    -0.37100
N926        N  0.97585310  0.96014395  0.60001534    -0.37100
C927        C  0.00421796  0.66369438  0.55287490    -0.03800
C928        C  0.02210339  0.65037819  0.59398136    -0.00900
C929        C  0.06004679  0.61672678  0.59774961     0.04100
C930        C  0.08201570  0.59734557  0.56035904    -0.03800
C931        C  0.07949547  0.62952046  0.52583101    -0.00900
C932        C  0.03895600  0.65976237  0.52029421     0.04100
C933        C  0.00704293  0.67571489  0.63197209     0.38700
C934        C  0.11823628  0.63180558  0.49633586     0.38700
C935        C  0.03534116  0.68863623  0.48237761     0.37100
C936        C  0.07988996  0.60817576  0.63986242     0.37100
N937        N  0.03418625  0.71227615  0.45228743    -0.37700
N938        N  0.09541590  0.60226321  0.67371807    -0.37700
N939        N  0.14955895  0.63372462  0.47299935    -0.37100
N940        N  0.99578889  0.69637314  0.66231100    -0.37100
C941        C  0.95231694  0.73824765  0.52401152    -0.03800
C942        C  0.98515332  0.77595032  0.53803078    -0.00900
C943        C  0.98563375  0.82558424  0.52107861     0.04100
C944        C  0.95895791  0.84158760  0.48401560    -0.03800
C945        C  0.93462223  0.80117662  0.46581218    -0.00900
C946        C  0.92416597  0.75702425  0.48910811     0.04100
C947        C  0.01895406  0.76631485  0.57166921     0.38700
C948        C  0.92743839  0.79993194  0.42051192     0.38700
C949        C  0.87534627  0.74270023  0.48683623     0.37100
C950        C  0.01519324  0.86032949  0.54270060     0.37100
N951        N  0.83526858  0.73457682  0.48629915    -0.37700
N952        N  0.03983591  0.88685784  0.56047933    -0.37700
N953        N  0.92551722  0.79612401  0.38380312    -0.37100
N954        N  0.04792978  0.76185065  0.59765175    -0.37100
C955        C  0.34616224  0.99670738  0.54668279    -0.03800
C956        C  0.35977774  0.97656161  0.58648012    -0.00900
C957        C  0.39813238  0.94301973  0.58998624     0.04100
C958        C  0.42498043  0.92737975  0.55332166    -0.03800
C959        C  0.39994989  0.93753721  0.51428721    -0.00900
C960        C  0.35655812  0.96414748  0.51389704     0.04100
C961        C  0.33005780  0.98363721  0.62330960     0.38700
C962        C  0.41404212  0.91907905  0.47361014     0.38700
C963        C  0.31580507  0.94031454  0.49548957     0.37100
C964        C  0.40631839  0.92592098  0.63243317     0.37100
N965        N  0.28309258  0.91992817  0.48254394    -0.37700
N966        N  0.40758456  0.91753594  0.66834176    -0.37700
N967        N  0.42125431  0.90706571  0.43894207    -0.37100
N968        N  0.30763809  0.98531375  0.65386525    -0.37100
C969        C  0.51686387  0.93549733  0.53739125    -0.03800
C970        C  0.56383664  0.91808391  0.52930723    -0.00900
C971        C  0.59642437  0.94634682  0.50638600     0.04100
C972        C  0.58753028  0.99551076  0.50125620    -0.03800
C973        C  0.55735628  0.01335294  0.53384758    -0.00900
C974        C  0.51736570  0.98608186  0.54482523     0.04100
C975        C  0.57900656  0.87222159  0.54410647     0.38700
C976        C  0.56727611  0.05749635  0.55736773     0.38700
C977        C  0.48119518  0.01163584  0.56743096     0.37100
C978        C  0.64103033  0.92613536  0.49359541     0.37100
N979        N  0.45621826  0.03514236  0.58741536    -0.37700
N980        N  0.67686747  0.90942902  0.48438112    -0.37700
N981        N  0.57494596  0.09149331  0.57738133    -0.37100
N982        N  0.59181497  0.83593132  0.55653084    -0.37100
C983        C  0.34662062  0.58729596  0.47223002    -0.03800
C984        C  0.39573220  0.58223312  0.46736531    -0.00900
C985        C  0.42322370  0.61895804  0.48622643     0.04100
C986        C  0.42382412  0.66131857  0.46329370    -0.03800
C987        C  0.37437154  0.67093346  0.44991073    -0.00900
C988        C  0.33546389  0.63596973  0.45932470     0.04100
C989        C  0.40540891  0.57023747  0.42356270     0.38700
C990        C  0.36094216  0.71470173  0.43016764     0.38700
C991        C  0.28684340  0.65103872  0.45756500     0.37100
C992        C  0.41201302  0.62900019  0.53011986     0.37100
N993        N  0.24832327  0.66490016  0.45779326    -0.37700
N994        N  0.40133986  0.63756348  0.56480304    -0.37700
N995        N  0.34423552  0.74804743  0.41496045    -0.37100
N996        N  0.40691963  0.56133013  0.38754726    -0.37100
C997        C  0.47064114  0.74715871  0.48140538    -0.03800
C998        C  0.50216718  0.78650246  0.47208889    -0.00900
C999        C  0.49799919  0.83486989  0.49021955     0.04100
C1000       C  0.47447202  0.84700709  0.52971848    -0.03800
C1001       C  0.44260664  0.80901398  0.53989507    -0.00900
C1002       C  0.43821842  0.76343101  0.51535994     0.04100
C1003       C  0.54853407  0.77498707  0.45696026     0.38700
C1004       C  0.40817325  0.81971120  0.57251414     0.38700
C1005       C  0.39558558  0.73743363  0.52431509     0.37100
C1006       C  0.51329450  0.87399609  0.46459664     0.37100
N1007       N  0.35899801  0.72153125  0.53256677    -0.37700
N1008       N  0.52261954  0.90892251  0.44704755    -0.37700
N1009       N  0.37911743  0.82809311  0.59728848    -0.37100
N1010       N  0.58786223  0.76484551  0.45262060    -0.37100
C1011       C  0.92233789  0.41836795  0.45594917    -0.03800
C1012       C  0.88745005  0.41920310  0.48903404    -0.00900
C1013       C  0.84893159  0.45267040  0.48716981     0.04100
C1014       C  0.84365333  0.48336538  0.45184467    -0.03800
C1015       C  0.86277846  0.46156907  0.41399364    -0.00900
C1016       C  0.90211149  0.42977440  0.41604094     0.04100
C1017       C  0.87692492  0.37544498  0.51112821     0.38700
C1018       C  0.83528772  0.45795383  0.37566113     0.38700
C1019       C  0.91599504  0.40302730  0.37814217     0.37100
C1020       C  0.80887448  0.44630334  0.51514331     0.37100
N1021       N  0.92603071  0.38249656  0.34732688    -0.37700
N1022       N  0.77725045  0.43934921  0.53745931    -0.37700
N1023       N  0.81660904  0.44719684  0.34430812    -0.37100
N1024       N  0.86558503  0.34097633  0.52835597    -0.37100
C1025       C  0.85538232  0.57205147  0.47888058    -0.03800
C1026       C  0.88328232  0.56151057  0.51560334    -0.00900
C1027       C  0.92268470  0.59067667  0.52805626     0.04100
C1028       C  0.92973152  0.63831950  0.51196027    -0.03800
C1029       C  0.90543114  0.64566966  0.47315812    -0.00900
C1030       C  0.86510557  0.61818200  0.46203885     0.04100
C1031       C  0.86832984  0.52720380  0.54683829     0.38700
C1032       C  0.92819713  0.66962724  0.43836436     0.38700
C1033       C  0.82550537  0.64342898  0.44481748     0.37100
C1034       C  0.95417038  0.57033422  0.55954173     0.37100
N1035       N  0.78968548  0.66041013  0.43592924    -0.37700
N1036       N  0.97575600  0.55143168  0.58586394    -0.37700
N1037       N  0.94518810  0.68758228  0.40913074    -0.37100
N1038       N  0.86032242  0.50180564  0.57480844    -0.37100
C1039       C  0.57232995  0.49670641  0.54340790    -0.03800
C1040       C  0.52257390  0.50415295  0.54862537    -0.00900
C1041       C  0.49210909  0.46892448  0.56453145     0.04100
C1042       C  0.49460296  0.42153074  0.54892467    -0.03800
C1043       C  0.54428210  0.40941057  0.54631709    -0.00900
C1044       C  0.58184174  0.44622097  0.55015777     0.04100
C1045       C  0.50317480  0.55017957  0.55073253     0.38700
C1046       C  0.55829849  0.36002677  0.54633686     0.38700
C1047       C  0.62647810  0.43079436  0.56761673     0.37100
C1048       C  0.46838924  0.48139571  0.60388473     0.37100
N1049       N  0.66047398  0.41357285  0.58114585    -0.37700
N1050       N  0.45161953  0.49582779  0.63498452    -0.37700
N1051       N  0.57158906  0.32109815  0.54507156    -0.37100
N1052       N  0.48905504  0.58764714  0.55615680    -0.37100
C1053       C  0.58648623  0.58608987  0.51392349    -0.03800
C1054       C  0.55984769  0.57461748  0.47799351    -0.00900
C1055       C  0.52518756  0.60667007  0.46157672     0.04100
C1056       C  0.51570971  0.65453509  0.47922189    -0.03800
C1057       C  0.55060603  0.66818083  0.50992555    -0.00900
C1058       C  0.58804195  0.63674403  0.52273164     0.04100
C1059       C  0.56894989  0.52928930  0.45675765     0.38700
C1060       C  0.54915356  0.71397764  0.53038854     0.38700
C1061       C  0.63139850  0.65897723  0.53848987     0.37100
C1062       C  0.50503439  0.58862503  0.42284573     0.37100
N1063       N  0.66636685  0.67649319  0.55003410    -0.37700
N1064       N  0.49591971  0.57122394  0.39037534    -0.37700
N1065       N  0.54804910  0.75029287  0.54787617    -0.37100
N1066       N  0.57415472  0.49400813  0.43813339    -0.37100
C1067       C  0.66484532  0.53638915  0.52157555    -0.03800
C1068       C  0.69582025  0.57591641  0.51279101    -0.00900
C1069       C  0.74619114  0.57053873  0.50600728     0.04100
C1070       C  0.76448979  0.53586966  0.47586696    -0.03800
C1071       C  0.72840940  0.49968746  0.46926543    -0.00900
C1072       C  0.68284906  0.49762170  0.49349832     0.04100
C1073       C  0.67873463  0.60336927  0.47697527     0.38700
C1074       C  0.73744317  0.46288253  0.43773165     0.38700
C1075       C  0.65445427  0.45640817  0.48331268     0.37100
C1076       C  0.77406289  0.60993307  0.52068609     0.37100
N1077       N  0.63518331  0.42178249  0.47284939    -0.37700
N1078       N  0.79598516  0.64239421  0.53211329    -0.37700
N1079       N  0.74243878  0.43210221  0.41342398    -0.37100
N1080       N  0.66492138  0.62318226  0.44720903    -0.37100
C1081       C  0.49496269  0.80127726  0.36266705    -0.03800
C1082       C  0.53196457  0.77229682  0.34812233    -0.00900
C1083       C  0.52281180  0.73559847  0.31972337     0.04100
C1084       C  0.47829586  0.72264762  0.63445835    -0.03800
C1085       C  0.43832838  0.74629126  0.65135394    -0.00900
C1086       C  0.44477122  0.78628319  0.67880459     0.04100
C1087       C  0.58067856  0.77793790  0.36300283     0.38700
C1088       C  0.39127752  0.72924024  0.64084990     0.38700
C1089       C  0.40441546  0.81320063  0.69359986     0.37100
C1090       C  0.56385532  0.71340055  0.30232989     0.37100
N1091       N  0.37191174  0.83462533  0.70530627    -0.37700
N1092       N  0.59959388  0.69888630  0.29134118    -0.37700
N1093       N  0.35360088  0.71575130  0.63250385    -0.37100
N1094       N  0.61944563  0.78060159  0.37483461    -0.37100
C1095       C  0.74176633  0.86768322  0.30164197    -0.03800
C1096       C  0.73403943  0.85543418  0.64188108    -0.00900
C1097       C  0.69249153  0.82937038  0.64460129     0.04100
C1098       C  0.66758017  0.83230144  0.68231614    -0.03800
C1099       C  0.67546049  0.81659652  0.30882957    -0.00900
C1100       C  0.71106061  0.84281439  0.32916413     0.04100
C1101       C  0.75781056  0.85553466  0.60124249     0.38700
C1102       C  0.68354191  0.76732826  0.30090550     0.38700
C1103       C  0.69936505  0.86227094  0.37016890     0.37100
C1104       C  0.67502603  0.80103757  0.60926650     0.37100
N1105       N  0.68748348  0.87974146  0.40175322    -0.37700
N1106       N  0.66417887  0.77740990  0.58043521    -0.37700
N1107       N  0.68997847  0.72778609  0.29311095    -0.37100
N1108       N  0.77631574  0.85157461  0.56864079    -0.37100
C1109       C  0.87549922  0.82286541  0.65664211    -0.03800
C1110       C  0.77909647  0.79117930  0.40183602    -0.00900
C1111       C  0.75892617  0.74753195  0.39038977     0.04100
C1112       C  0.77027743  0.72725932  0.35093553    -0.03800
C1113       C  0.81829689  0.76826363  0.62525413    -0.00900
C1114       C  0.85719328  0.79788505  0.62138478     0.04100
C1115       C  0.76003334  0.81508725  0.43911454     0.38700
C1116       C  0.79287920  0.74962746  0.58831447     0.38700
C1117       C  0.87578949  0.80723199  0.58095482     0.37100
C1118       C  0.72098504  0.72859579  0.41586998     0.37100
N1119       N  0.89305884  0.82118629  0.55086111    -0.37700
N1120       N  0.69082950  0.71732892  0.43839924    -0.37700
N1121       N  0.77088656  0.73610503  0.55940401    -0.37100
N1122       N  0.74314205  0.83180751  0.46927735    -0.37100
C1123       C  0.71582905  0.57810444  0.64429946    -0.03800
C1124       C  0.70645649  0.49732204  0.31267639    -0.00900
C1125       C  0.66467160  0.50231964  0.33772836     0.04100
C1126       C  0.64842261  0.54841764  0.34889957    -0.03800
C1127       C  0.68462153  0.60589322  0.71171021    -0.00900
C1128       C  0.70174688  0.61644268  0.67131162     0.04100
C1129       C  0.72604923  0.45059297  0.30497133     0.38700
C1130       C  0.68232198  0.64299347  0.74414200     0.38700
C1131       C  0.69850221  0.66523968  0.65721317     0.37100
C1132       C  0.63978791  0.46084175  0.35297826     0.37100
N1133       N  0.69658225  0.70488976  0.64767489    -0.37700
N1134       N  0.61987550  0.42758137  0.36499141    -0.37700
N1135       N  0.68061974  0.67400514  0.76859520    -0.37100
N1136       N  0.73996467  0.41245936  0.29831685    -0.37100
O1137       O  0.87687076  0.67735259  0.91553462    -0.56300
C1138       C  0.79147072  0.55933736  0.93828464     0.76400
O1139       O  0.85868163  0.57133083  0.71832030    -0.57400
C1140       C  0.92168816  0.67344960  0.91437727     0.76300
C1141       C  0.81452133  0.70493051  0.67069719     0.78700
Cd1142     Cd  0.85384929  0.61624436  0.98112991     1.37500
O1143       O  0.82413495  0.53862266  0.95845170    -0.56300
O1144       O  0.79411471  0.67015367  0.98987602    -0.55100
C1145       C  0.81771639  0.56753914  0.73586993     0.78700
O1146       O  0.85208898  0.68981926  0.68869460    -0.57400
O1147       O  0.76964909  0.62814978  0.61021037    -0.55900
O1148       O  0.93508258  0.64484058  0.94431075    -0.55900
O1149       O  0.78611491  0.58620092  0.71307944    -0.55100
O1150       O  0.89633054  0.95080701  0.75622573    -0.56300
C1151       C  0.79241737  0.90962193  0.67741289     0.76400
O1152       O  0.80724323  0.99851731  0.94533575    -0.57400
C1153       C  0.93092746  0.92083772  0.75870645     0.76300
C1154       C  0.84432018  0.89273618  0.98130869     0.78700
Cd1155     Cd  0.86272992  0.97577057  0.01162533     1.37500
O1156       O  0.80484394  0.93754909  0.70745117    -0.56300
O1157       O  0.93168335  0.88344074  0.67495106    -0.55100
C1158       C  0.83496698  0.02480159  0.92485178     0.78700
O1159       O  0.88651786  0.90644307  0.97455137    -0.57400
O1160       O  0.79163812  0.98184754  0.04868464    -0.55900
O1161       O  0.94519711  0.90903221  0.72171279    -0.55900
O1162       O  0.87630522  0.02734699  0.94299433    -0.55100
O1163       O  0.54291940  0.90036989  0.95224431    -0.56300
C1164       C  0.61585453  0.02493518  0.98196338     0.76400
O1165       O  0.61518674  0.98569808  0.72587608    -0.57400
C1166       C  0.50036947  0.90978062  0.94192738     0.76300
C1167       C  0.50279252  0.84487640  0.71230876     0.78700
Cd1168     Cd  0.55081387  0.92358604  0.68976109     1.37500
O1169       O  0.57818523  0.04226671  0.99733386    -0.56300
O1170       O  0.61579069  0.90264652  0.03009100    -0.55100
C1171       C  0.59121914  0.00243771  0.75661138     0.78700
O1172       O  0.47741176  0.88171794  0.70779395    -0.57400
O1173       O  0.60238642  0.86783111  0.71486216    -0.55900
O1174       O  0.48362305  0.94025022  0.96914166    -0.55900
O1175       O  0.54779236  0.98995536  0.75220405    -0.55100
O1176       O  0.63057762  0.67246991  0.96055406    -0.56300
C1177       C  0.60199367  0.57140117  0.92656581     0.76400
O1178       O  0.57123101  0.55801141  0.69098110    -0.57400
C1179       C  0.63593703  0.70773355  0.98478082     0.76300
C1180       C  0.48426320  0.68959467  0.73638612     0.78700
Cd1181     Cd  0.53523696  0.62672683  0.65963271     1.37500
O1182       O  0.56920023  0.56199443  0.95348554    -0.56300
O1183       O  0.46146580  0.66624229  0.70777417    -0.55100
C1184       C  0.60411651  0.58605766  0.70414192     0.78700
O1185       O  0.52876958  0.68962819  0.72776773    -0.57400
O1186       O  0.62699006  0.60648680  0.93880304    -0.55900
O1187       O  0.45496538  0.64117280  0.63684956    -0.55900
O1188       O  0.63132849  0.60407614  0.06934388    -0.55100
C1189       C  0.59942301  0.55384906  0.87824407    -0.00900
C1190       C  0.81088090  0.54760939  0.78376653    -0.00900
C1191       C  0.46416103  0.69496674  0.78429603    -0.00900
C1192       C  0.47965683  0.90154189  0.89294829    -0.00900
C1193       C  0.95286651  0.68657187  0.87134264    -0.00900
C1194       C  0.95843120  0.90777056  0.80250541    -0.00900
C1195       C  0.61016603  0.03210898  0.79895911    -0.00900
C1196       C  0.82467150  0.04509478  0.87755046    -0.00900
O1197       O  0.06600392  0.38116083  0.96993404    -0.56300
C1198       C  0.09163395  0.51400093  0.91497788     0.76400
O1199       O  0.99839689  0.45620860  0.72769414    -0.57400
C1200       C  0.08522307  0.36726561  0.61793164     0.76300
C1201       C  0.15082849  0.41504222  0.71218650     0.78700
Cd1202     Cd  0.06787769  0.44357161  0.67179638     1.37500
O1203       O  0.05517523  0.52167119  0.93853700    -0.56300
O1204       O  0.13699247  0.46590399  0.03266003    -0.55100
C1205       C  0.99356434  0.41444295  0.74424542     0.78700
O1206       O  0.14634395  0.45814328  0.70164354    -0.57400
O1207       O  0.11072792  0.47538572  0.92734252    -0.55900
O1208       O  0.11516809  0.39812863  0.62724802    -0.55900
O1209       O  0.01958350  0.38454435  0.72536644    -0.55100
O1210       O  0.12644496  0.17327527  0.67748270    -0.56300
C1211       C  0.11346743  0.07249878  0.73209700     0.76400
O1212       O  0.99851647  0.13052723  0.92407120    -0.57400
C1213       C  0.14376632  0.19292100  0.64495836     0.76300
C1214       C  0.13172321  0.06228364  0.93788635     0.78700
Cd1215     Cd  0.08302953  0.11598631  0.64039600     1.37500
O1216       O  0.11705369  0.11539507  0.71914458    -0.56300
O1217       O  0.12748923  0.08818373  0.58019199    -0.55100
C1218       C  0.99985406  0.17488124  0.91418882     0.78700
O1219       O  0.09898650  0.04118707  0.95752891    -0.57400
O1220       O  0.09404382  0.04666942  0.70312251    -0.55900
O1221       O  0.13757088  0.16823249  0.95666181    -0.55900
O1222       O  0.02636657  0.19779716  0.93982818    -0.55100
O1223       O  0.43374310  0.18648485  0.98129320    -0.56300
C1224       C  0.33774310  0.07420113  0.92381948     0.76400
O1225       O  0.39119840  0.18092349  0.73519514    -0.57400
C1226       C  0.40364043  0.21998163  0.98541469     0.76300
C1227       C  0.30479595  0.09913624  0.70149140     0.78700
Cd1228     Cd  0.37446823  0.13513491  0.00460719     1.37500
O1229       O  0.37919884  0.07188289  0.94137637    -0.56300
O1230       O  0.30423026  0.13837808  0.04453108    -0.55100
C1231       C  0.43617535  0.18043467  0.73930243     0.78700
O1232       O  0.33948290  0.07083761  0.69522521    -0.57400
O1233       O  0.31303815  0.10519157  0.94232678    -0.55900
O1234       O  0.37992379  0.21185212  0.62647474    -0.55900
O1235       O  0.45634916  0.16006307  0.70758669    -0.55100
O1236       O  0.34617180  0.52651118  0.97629535    -0.56300
C1237       C  0.41420544  0.39940037  0.92384428     0.76400
O1238       O  0.31796453  0.46094295  0.73193439    -0.57400
C1239       C  0.30767026  0.50508487  0.96619065     0.76300
C1240       C  0.46437961  0.39681297  0.71324765     0.78700
Cd1241     Cd  0.37258726  0.45448519  0.00485663     1.37500
O1242       O  0.37332111  0.41868459  0.92736868    -0.56300
O1243       O  0.36922388  0.39185565  0.04381373    -0.55100
C1244       C  0.32277883  0.50557526  0.73623650     0.78700
O1245       O  0.47236620  0.42528072  0.68359612    -0.57400
O1246       O  0.43566481  0.39907065  0.95956220    -0.55900
O1247       O  0.32600525  0.37825484  0.71718305    -0.55900
O1248       O  0.34746228  0.52116512  0.70477101    -0.55100
C1249       C  0.10220712  0.54254536  0.86947180    -0.00900
C1250       C  0.31273377  0.53293172  0.78257582    -0.00900
C1251       C  0.45991643  0.18609631  0.78499089    -0.00900
C1252       C  0.44112721  0.39460623  0.87899016    -0.00900
C1253       C  0.11478322  0.06002454  0.78235569    -0.00900
C1254       C  0.32650042  0.05066086  0.87717031    -0.00900
C1255       C  0.97496582  0.19391927  0.86996461    -0.00900
C1256       C  0.96434419  0.40514854  0.78850377    -0.00900
C1257       C  0.97446246  0.25070211  0.85130403    -0.03800
C1258       C  0.97367504  0.29372178  0.87644205    -0.00900
C1259       C  0.97280841  0.34203965  0.85789732     0.04100
C1260       C  0.96543621  0.35151189  0.81227758    -0.03800
C1261       C  0.95897488  0.30850091  0.78941990    -0.00900
C1262       C  0.97349786  0.26284404  0.80595160     0.04100
C1263       C  0.97652996  0.28932881  0.92212682     0.38700
C1264       C  0.93416085  0.30922033  0.74906754     0.38700
C1265       C  0.00151874  0.23731166  0.77512681     0.37100
C1266       C  0.97670349  0.38178306  0.88764021     0.37100
N1267       N  0.02460859  0.21915429  0.74931361    -0.37700
N1268       N  0.97928881  0.41313790  0.91177701    -0.37700
N1269       N  0.91246370  0.30736831  0.71764096    -0.37100
N1270       N  0.97926320  0.28728799  0.95887233    -0.37100
C1271       C  0.08126060  0.10467540  0.79819098    -0.03800
C1272       C  0.09480850  0.14320789  0.82528836    -0.00900
C1273       C  0.06007938  0.17343610  0.84431566     0.04100
C1274       C  0.01023267  0.16556493  0.83951911    -0.03800
C1275       C  0.99789311  0.13749514  0.80349396    -0.00900
C1276       C  0.03350142  0.11172809  0.78094754     0.04100
C1277       C  0.14058086  0.16479396  0.82172431     0.38700
C1278       C  0.95475752  0.14720585  0.77973001     0.38700
C1279       C  0.02130456  0.10089079  0.73666522     0.37100
C1280       C  0.07547943  0.21744765  0.86447792     0.37100
N1281       N  0.00969955  0.09715960  0.70125312    -0.37700
N1282       N  0.08712320  0.25308281  0.87972547    -0.37700
N1283       N  0.92435136  0.15446714  0.75558793    -0.37100
N1284       N  0.17298942  0.18971606  0.81878939    -0.37100
C1285       C  0.27074688  0.05264396  0.85318326    -0.00600
C1286       C  0.23135223  0.02136159  0.86223360    -0.00900
C1287       C  0.18314442  0.02443059  0.84234094     0.04100
C1288       C  0.16945286  0.05608967  0.80720876    -0.03800
C1289       C  0.20965179  0.08460932  0.79615205    -0.00900
C1290       C  0.25620312  0.08408633  0.81811415     0.04100
C1291       C  0.24040486  0.98236394  0.89098207     0.38700
C1292       C  0.20354794  0.11902980  0.76249487     0.38700
C1293       C  0.28690403  0.12137156  0.80426137     0.37100
C1294       C  0.14757619  0.99398050  0.86069714     0.37100
N1295       N  0.30924527  0.15208265  0.79091094    -0.37700
N1296       N  0.12054373  0.96892452  0.87668341    -0.37700
N1297       N  0.20095367  0.15002140  0.73847149    -0.37100
N1298       N  0.24642034  0.94945342  0.91236503    -0.37100
C1299       C  0.42775706  0.14746794  0.80873673    -0.03800
C1300       C  0.41297399  0.10234913  0.78947855    -0.00900
C1301       C  0.37987041  0.07188275  0.80972684     0.04100
C1302       C  0.36094223  0.08377296  0.85032935    -0.03800
C1303       C  0.37318245  0.13107904  0.86482635    -0.00900
C1304       C  0.41362778  0.15337373  0.85104042     0.04100
C1305       C  0.43365441  0.08323050  0.75022667     0.38700
C1306       C  0.33899602  0.16356924  0.88349016     0.38700
C1307       C  0.43893125  0.18235134  0.88139005     0.37100
C1308       C  0.36116931  0.03342516  0.78382367     0.37100
N1309       N  0.45901792  0.20762650  0.90432528    -0.37700
N1310       N  0.35061510  0.00387876  0.75966663    -0.37700
N1311       N  0.31259449  0.19106147  0.89731726    -0.37100
N1312       N  0.44925494  0.06533461  0.71997567    -0.37100
C1313       C  0.45150306  0.33994595  0.85712216    -0.03800
C1314       C  0.42051310  0.30023921  0.86260150    -0.00900
C1315       C  0.41704888  0.26053652  0.83204710     0.04100
C1316       C  0.45635764  0.24223475  0.80715357    -0.03800
C1317       C  0.49202321  0.27921239  0.80563989    -0.00900
C1318       C  0.48557892  0.32783605  0.82382721     0.04100
C1319       C  0.39093917  0.29914243  0.89989529     0.38700
C1320       C  0.53614497  0.26948571  0.78435494     0.38700
C1321       C  0.51424850  0.36462877  0.80530670     0.37100
C1322       C  0.36970640  0.24573590  0.82220736     0.37100
N1323       N  0.53896671  0.39140417  0.78867043    -0.37700
N1324       N  0.33002250  0.24019870  0.81493786    -0.37700
N1325       N  0.57297482  0.26443193  0.76904415    -0.37100
N1326       N  0.36673321  0.29894208  0.92951837    -0.37100
C1327       C  0.33805667  0.49452274  0.81411487    -0.03800
C1328       C  0.32387247  0.44607030  0.81869480    -0.00900
C1329       C  0.35395023  0.41156896  0.84026000     0.04100
C1330       C  0.40413207  0.42160099  0.84785251    -0.03800
C1331       C  0.41594667  0.46687149  0.83395375    -0.00900
C1332       C  0.38157481  0.50271923  0.83452568     0.04100
C1333       C  0.27804654  0.43252715  0.80253655     0.38700
C1334       C  0.45985530  0.47431421  0.81262761     0.38700
C1335       C  0.37955157  0.52976194  0.87304953     0.37100
C1336       C  0.33053485  0.36874716  0.85405487     0.37100
N1337       N  0.37834355  0.55112773  0.90450389    -0.37700
N1338       N  0.30686302  0.33667485  0.86280083    -0.37700
N1339       N  0.49532727  0.47962811  0.79540130    -0.37100
N1340       N  0.24103371  0.42417648  0.78883749    -0.37100
C1341       C  0.06830900  0.50991933  0.84163689    -0.03800
C1342       C  0.02559801  0.52478614  0.82209120    -0.00900
C1343       C  0.98866006  0.49179453  0.81304353     0.04100
C1344       C  0.99609710  0.44128566  0.81495091    -0.03800
C1345       C  0.04402343  0.42727102  0.82402573    -0.00900
C1346       C  0.07841752  0.46047936  0.83773792     0.04100
C1347       C  0.02567385  0.56639504  0.79480475     0.38700
C1348       C  0.06036204  0.37953330  0.81317598     0.38700
C1349       C  0.12650135  0.44419196  0.84291378     0.37100
C1350       C  0.95053542  0.51173201  0.78824661     0.37100
N1351       N  0.16517719  0.43139136  0.84567378    -0.37700
N1352       N  0.92707780  0.53306096  0.76498313    -0.37700
N1353       N  0.07174246  0.34134532  0.80358010    -0.37100
N1354       N  0.02247842  0.59557906  0.76897400    -0.37100
C1355       C  0.15678920  0.54318243  0.84499922    -0.03800
C1356       C  0.19810752  0.56582110  0.86237407    -0.00900
C1357       C  0.24591068  0.56326327  0.84320190     0.04100
C1358       C  0.25710189  0.54123659  0.80230479    -0.03800
C1359       C  0.21402525  0.53042482  0.78019092    -0.00900
C1360       C  0.16656984  0.53064457  0.80007629     0.04100
C1361       C  0.18987701  0.60063706  0.89574392     0.38700
C1362       C  0.21762142  0.52855544  0.73430745     0.38700
C1363       C  0.12744812  0.52484390  0.77055975     0.37100
C1364       C  0.28124181  0.59235542  0.86348518     0.37100
N1365       N  0.09720567  0.52088346  0.74566974    -0.37700
N1366       N  0.30508332  0.61911340  0.88160405    -0.37700
N1367       N  0.22070804  0.53018498  0.69758030    -0.37100
N1368       N  0.18415965  0.63086893  0.92047402    -0.37100
C1369       C  0.41640901  0.26318860  0.01048852    -0.03800
C1370       C  0.46135027  0.28557657  0.00801951    -0.00900
C1371       C  0.49883203  0.32597020  0.67229289     0.04100
C1372       C  0.43493212  0.34370081  0.06083269    -0.03800
C1373       C  0.40044574  0.31152146  0.07382446    -0.00900
C1374       C  0.38581532  0.27715528  0.04408215     0.04100
C1375       C  0.51971681  0.26281701  0.62013274     0.38700
C1376       C  0.36751071  0.32621555  0.10642132     0.38700
C1377       C  0.33813777  0.25876247  0.04810150     0.37100
C1378       C  0.54250495  0.35044419  0.66279696     0.37100
N1379       N  0.29991191  0.24574423  0.05349228    -0.37700
N1380       N  0.57768709  0.36921476  0.65462631    -0.37700
N1381       N  0.33786941  0.33707118  0.12961384    -0.37100
N1382       N  0.54850218  0.24545940  0.59907030    -0.37100
C1383       C  0.18152356  0.05708056  0.95226319    -0.03800
C1384       C  0.19376677  0.02438193  0.98432089    -0.00900
C1385       C  0.22901366  0.03652939  0.01516836     0.04100
C1386       C  0.25040306  0.08228982  0.01452525    -0.03800
C1387       C  0.23739336  0.11791626  0.65521944    -0.00900
C1388       C  0.21064696  0.09913203  0.62217384     0.04100
C1389       C  0.17303552  0.97732413  0.98220356     0.38700
C1390       C  0.25079038  0.16784298  0.65288720     0.38700
C1391       C  0.21699262  0.12020410  0.58126668     0.37100
C1392       C  0.23882031  0.00436407  0.04959403     0.37100
N1393       N  0.22822666  0.13939050  0.55077982    -0.37700
N1394       N  0.24507883  0.97802324  0.07715231    -0.37700
N1395       N  0.26158515  0.20740224  0.65067605    -0.37100
N1396       N  0.15669509  0.93977628  0.97797932    -0.37100
C1397       C  0.10283892  0.31885263  0.61809103    -0.03800
C1398       C  0.09399549  0.29600056  0.65686104    -0.00900
C1399       C  0.12939351  0.26861817  0.67539513     0.04100
C1400       C  0.15797383  0.24310094  0.64708435    -0.03800
C1401       C  0.16560676  0.26494105  0.95522147    -0.00900
C1402       C  0.14027039  0.30745483  0.95589335     0.04100
C1403       C  0.04784121  0.29744940  0.67570457     0.38700
C1404       C  0.19344987  0.25223189  0.91841122     0.38700
C1405       C  0.13302629  0.33362151  0.91721349     0.37100
C1406       C  0.12730254  0.25678747  0.72020728     0.37100
N1407       N  0.12562383  0.35399588  0.88617476    -0.37700
N1408       N  0.12514910  0.24768940  0.75604563    -0.37700
N1409       N  0.21693052  0.24603662  0.88880606    -0.37100
N1410       N  0.01002130  0.29679655  0.68915496    -0.37100
C1411       C  0.19520354  0.38932860  0.70618099    -0.03800
C1412       C  0.19730083  0.48791574  0.96558115    -0.00900
C1413       C  0.23074102  0.50079263  0.93561197     0.04100
C1414       C  0.26548328  0.53117426  0.95164930    -0.03800
C1415       C  0.24229716  0.35328871  0.65039905    -0.00900
C1416       C  0.21559947  0.39189361  0.66514150     0.04100
C1417       C  0.19494619  0.43706379  0.97365255     0.38700
C1418       C  0.25663342  0.35042337  0.60628281     0.38700
C1419       C  0.21734724  0.43595547  0.64160146     0.37100
C1420       C  0.24381000  0.46497013  0.90460827     0.37100
N1421       N  0.22236094  0.47090504  0.62282846    -0.37700
N1422       N  0.25317893  0.43064946  0.88622169    -0.37700
N1423       N  0.26859363  0.34799307  0.57118824    -0.37100
N1424       N  0.20019827  0.39678644  0.97938023    -0.37100
C1425       C  0.92158994  0.17219788  0.87362932    -0.03800
C1426       C  0.88697786  0.16755426  0.84078128    -0.00900
C1427       C  0.85454819  0.12760281  0.83997571     0.04100
C1428       C  0.84882677  0.09820362  0.87680150    -0.03800
C1429       C  0.86555141  0.12250736  0.91459863    -0.00900
C1430       C  0.90156789  0.15819091  0.91315013     0.04100
C1431       C  0.87528784  0.20949059  0.81626651     0.38700
C1432       C  0.83939957  0.12060465  0.95365679     0.38700
C1433       C  0.91155099  0.18598535  0.95165098     0.37100
C1434       C  0.82264715  0.12295366  0.80399145     0.37100
N1435       N  0.91832930  0.20716205  0.98294505    -0.37700
N1436       N  0.79728191  0.12193010  0.77481100    -0.37700
N1437       N  0.81988632  0.12440695  0.98562860    -0.37100
N1438       N  0.86408543  0.24281861  0.79717612    -0.37100
C1439       C  0.51170993  0.16121055  0.78772833    -0.03800
C1440       C  0.52108027  0.13480183  0.82439287    -0.00900
C1441       C  0.53766565  0.08816518  0.81840230     0.04100
C1442       C  0.57966268  0.08085691  0.79513565    -0.03800
C1443       C  0.58372162  0.11513342  0.76154693    -0.00900
C1444       C  0.54720433  0.15182420  0.75529224     0.04100
C1445       C  0.53887541  0.16207445  0.85997988     0.38700
C1446       C  0.62187663  0.10985280  0.73135910     0.38700
C1447       C  0.54975872  0.18035304  0.71758344     0.37100
C1448       C  0.50199794  0.05162210  0.81379799     0.37100
N1449       N  0.55397550  0.20255321  0.68701988    -0.37700
N1450       N  0.47542439  0.02037712  0.81036031    -0.37700
N1451       N  0.65231639  0.10554670  0.70710447    -0.37100
N1452       N  0.55328658  0.18492813  0.88810338    -0.37100
C1453       C  0.66826062  0.04160439  0.81223401    -0.03800
C1454       C  0.68343125  0.07393999  0.84611176    -0.00900
C1455       C  0.73023199  0.07340882  0.86767631     0.04100
C1456       C  0.76947757  0.04435315  0.85452677    -0.03800
C1457       C  0.75773239  0.02273596  0.81321324    -0.00900
C1458       C  0.70964219  0.01921790  0.79427441     0.04100
C1459       C  0.65695954  0.11727823  0.85140175     0.38700
C1460       C  0.79577278  0.01508574  0.78360111     0.38700
C1461       C  0.70645281  0.99975551  0.75148775     0.37100
C1462       C  0.73848127  0.10851326  0.90083390     0.37100
N1463       N  0.70785023  0.98508386  0.71687017    -0.37700
N1464       N  0.74185660  0.13847792  0.92619141    -0.37700
N1465       N  0.82396255  0.01265440  0.75720936    -0.37100
N1466       N  0.64043218  0.15470213  0.85501476    -0.37100
C1467       C  0.00706458  0.93850764  0.79678846    -0.03800
C1468       C  0.00221788  0.98750046  0.78806515    -0.00900
C1469       C  0.03726918  0.01692975  0.80547841     0.04100
C1470       C  0.08309158  0.01180312  0.78937795    -0.03800
C1471       C  0.09259103  0.96120360  0.78136047    -0.00900
C1472       C  0.05574122  0.92448894  0.78958646     0.04100
C1473       C  0.99181783  0.99723179  0.74354301     0.38700
C1474       C  0.13900218  0.94540234  0.76910984     0.38700
C1475       C  0.06743249  0.87449282  0.78738522     0.37100
C1476       C  0.03298660  0.03403659  0.84873435     0.37100
N1477       N  0.07706467  0.83444388  0.78579935    -0.37700
N1478       N  0.03114949  0.04883901  0.88319042    -0.37700
N1479       N  0.17537231  0.92936230  0.76031595    -0.37100
N1480       N  0.98330954  0.00231817  0.70764278    -0.37100
C1481       C  0.92668810  0.93355839  0.83764005    -0.03800
C1482       C  0.93768331  0.97904460  0.85399686    -0.00900
C1483       C  0.90426216  0.01548233  0.84627018     0.04100
C1484       C  0.85659352  0.00589039  0.85582888    -0.03800
C1485       C  0.84483403  0.95592588  0.85742359    -0.00900
C1486       C  0.87921939  0.92039113  0.84667744     0.04100
C1487       C  0.95619083  0.97783748  0.89702407     0.38700
C1488       C  0.79954863  0.93996622  0.87323800     0.38700
C1489       C  0.86790498  0.87169699  0.85568680     0.37100
C1490       C  0.91027682  0.04079995  0.80731208     0.37100
N1491       N  0.85546168  0.83427790  0.86544546    -0.37700
N1492       N  0.91291110  0.05759219  0.77389552    -0.37700
N1493       N  0.76493196  0.92438251  0.88672188    -0.37100
N1494       N  0.97053139  0.97668862  0.93172153    -0.37100
C1495       C  0.00646775  0.66797689  0.87512436    -0.03800
C1496       C  0.02768367  0.65345449  0.91383605    -0.00900
C1497       C  0.06341353  0.61734512  0.91371998     0.04100
C1498       C  0.08127767  0.59691844  0.87484877    -0.03800
C1499       C  0.07763000  0.63104785  0.84136017    -0.00900
C1500       C  0.03825497  0.66401951  0.84004861     0.04100
C1501       C  0.01882001  0.68066705  0.95285322     0.38700
C1502       C  0.11313422  0.63304050  0.80835918     0.38700
C1503       C  0.03393515  0.69629080  0.80450079     0.37100
C1504       C  0.08664077  0.61107059  0.95379329     0.37100
N1505       N  0.03272693  0.72251953  0.77620208    -0.37700
N1506       N  0.10002000  0.61343844  0.98844211    -0.37700
N1507       N  0.14118815  0.63651508  0.78182190    -0.37100
N1508       N  0.01211179  0.70214935  0.98394027    -0.37100
C1509       C  0.95529450  0.74563596  0.85493323    -0.03800
C1510       C  0.98845773  0.78268477  0.86981850    -0.00900
C1511       C  0.98702284  0.83343692  0.85601500     0.04100
C1512       C  0.96323312  0.84980674  0.81784264    -0.03800
C1513       C  0.94103102  0.80976973  0.79746153    -0.00900
C1514       C  0.92845390  0.76602716  0.82021011     0.04100
C1515       C  0.02765027  0.77059118  0.89743218     0.38700
C1516       C  0.95128070  0.80388217  0.75286173     0.38700
C1517       C  0.87983897  0.75308972  0.81780118     0.37100
C1518       C  0.01427455  0.86829678  0.87991139     0.37100
N1519       N  0.84038913  0.74298821  0.81862134    -0.37700
N1520       N  0.03664345  0.89560341  0.89916197    -0.37700
N1521       N  0.96207693  0.79796899  0.71765660    -0.37100
N1522       N  0.06148795  0.76453614  0.91775154    -0.37100
C1523       C  0.35010409  0.99722050  0.88223202    -0.03800
C1524       C  0.36250812  0.97479346  0.92189769    -0.00900
C1525       C  0.39834048  0.93847122  0.92451729     0.04100
C1526       C  0.42798475  0.92750312  0.88870983    -0.03800
C1527       C  0.40397704  0.93779974  0.84917111    -0.00900
C1528       C  0.36122981  0.96591889  0.84837663     0.04100
C1529       C  0.33349953  0.98133966  0.95898427     0.38700
C1530       C  0.41264452  0.90975719  0.81138733     0.38700
C1531       C  0.32084730  0.94425496  0.82716064     0.37100
C1532       C  0.39865800  0.90833672  0.96215400     0.37100
N1533       N  0.28953328  0.92370483  0.81175925    -0.37700
N1534       N  0.39854674  0.88530015  0.99267135    -0.37700
N1535       N  0.41451228  0.88707360  0.78048774    -0.37100
N1536       N  0.31172246  0.98225167  0.98989862    -0.37100
C1537       C  0.52070498  0.93604806  0.87408590    -0.03800
C1538       C  0.56668998  0.91953610  0.86088523    -0.00900
C1539       C  0.59568520  0.94905753  0.83531030     0.04100
C1540       C  0.59104350  0.99901120  0.83678200    -0.03800
C1541       C  0.56443300  0.01384042  0.87271762    -0.00900
C1542       C  0.52433108  0.98608977  0.88515269     0.04100
C1543       C  0.58764700  0.87561500  0.87465957     0.38700
C1544       C  0.57577430  0.05714864  0.89573656     0.38700
C1545       C  0.48906354  0.01073670  0.90995497     0.37100
C1546       C  0.63220449  0.92807634  0.80988870     0.37100
N1547       N  0.46301001  0.03253284  0.93051925    -0.37700
N1548       N  0.66161754  0.91217182  0.78903970    -0.37700
N1549       N  0.58281196  0.09151238  0.91529693    -0.37100
N1550       N  0.61097216  0.84387861  0.88470713    -0.37100
C1551       C  0.34364509  0.58269898  0.78241082    -0.03800
C1552       C  0.39252364  0.58074128  0.78880636    -0.00900
C1553       C  0.41623464  0.62026025  0.80709050     0.04100
C1554       C  0.41504203  0.66287466  0.78456973    -0.03800
C1555       C  0.36828722  0.66807916  0.76440194    -0.00900
C1556       C  0.33177228  0.62970518  0.76698761     0.04100
C1557       C  0.41635930  0.54821737  0.76065067     0.38700
C1558       C  0.35451831  0.71215928  0.74523357     0.38700
C1559       C  0.28407424  0.63819533  0.75205365     0.37100
C1560       C  0.40582608  0.63138436  0.85081876     0.37100
N1561       N  0.24585531  0.64539417  0.74019292    -0.37700
N1562       N  0.39659743  0.64438405  0.88490801    -0.37700
N1563       N  0.33858321  0.74637153  0.73085550    -0.37100
N1564       N  0.43118328  0.51950370  0.73753846    -0.37100
C1565       C  0.46221591  0.75202119  0.80725313    -0.03800
C1566       C  0.50160726  0.78474814  0.80820765    -0.00900
C1567       C  0.50180320  0.83212887  0.82927476     0.04100
C1568       C  0.47480468  0.84604903  0.86646096    -0.03800
C1569       C  0.43487621  0.81251805  0.86737159    -0.00900
C1570       C  0.42659668  0.77165065  0.83646126     0.04100
C1571       C  0.54648288  0.76562723  0.79625116     0.38700
C1572       C  0.39961170  0.81856319  0.90001998     0.38700
C1573       C  0.38168393  0.74728824  0.83943032     0.37100
C1574       C  0.51288199  0.87133732  0.80270520     0.37100
N1575       N  0.34497360  0.72962830  0.84345149    -0.37700
N1576       N  0.51742790  0.90664961  0.78435972    -0.37700
N1577       N  0.36949321  0.81908302  0.92484418    -0.37100
N1578       N  0.58227888  0.74634906  0.79190474    -0.37100
C1579       C  0.90959475  0.42233242  0.78330622    -0.03800
C1580       C  0.87643486  0.42767519  0.81753617    -0.00900
C1581       C  0.83698161  0.46042755  0.81431969     0.04100
C1582       C  0.83289851  0.49296550  0.78013497    -0.03800
C1583       C  0.85149444  0.47079067  0.74193507    -0.00900
C1584       C  0.88947151  0.43667480  0.74347891     0.04100
C1585       C  0.87608159  0.39437793  0.85242631     0.38700
C1586       C  0.82936938  0.47721748  0.70087154     0.38700
C1587       C  0.90500927  0.41500122  0.70374213     0.37100
C1588       C  0.79753150  0.45586615  0.84293206     0.37100
N1589       N  0.91664822  0.39845559  0.67152347    -0.37700
N1590       N  0.76508381  0.45080864  0.86460503    -0.37700
N1591       N  0.81448709  0.47998694  0.66665655    -0.37100
N1592       N  0.87207595  0.36788694  0.88032004    -0.37100
C1593       C  0.84805470  0.58307289  0.80948813    -0.03800
C1594       C  0.87944766  0.56987181  0.84349089    -0.00900
C1595       C  0.91947830  0.59860888  0.85586040     0.04100
C1596       C  0.92690078  0.64652775  0.84090573    -0.03800
C1597       C  0.90105393  0.65532798  0.80334810    -0.00900
C1598       C  0.85871377  0.62999933  0.79340531     0.04100
C1599       C  0.87134385  0.52920547  0.87024724     0.38700
C1600       C  0.92439591  0.67759022  0.76806630     0.38700
C1601       C  0.82250865  0.65601807  0.77077810     0.37100
C1602       C  0.95239060  0.57712497  0.88555918     0.37100
N1603       N  0.79002981  0.67412734  0.75527447    -0.37700
N1604       N  0.97494223  0.55695245  0.91040457    -0.37700
N1605       N  0.94210371  0.69409170  0.73856025    -0.37100
N1606       N  0.87077246  0.49807461  0.89427600    -0.37100
C1607       C  0.56225324  0.50755443  0.88065970    -0.03800
C1608       C  0.51275367  0.51485784  0.89064721    -0.00900
C1609       C  0.48237933  0.47722221  0.90337773     0.04100
C1610       C  0.48839171  0.42941127  0.88833232    -0.03800
C1611       C  0.53826587  0.41942934  0.88668862    -0.00900
C1612       C  0.57395045  0.45785774  0.88763915     0.04100
C1613       C  0.49201095  0.56046146  0.90021067     0.38700
C1614       C  0.55367238  0.37082266  0.89293564     0.38700
C1615       C  0.62015488  0.44600815  0.90392859     0.37100
C1616       C  0.45748954  0.48731045  0.94281613     0.37100
N1617       N  0.65655549  0.43357655  0.91652016    -0.37700
N1618       N  0.44202627  0.49961287  0.97511502    -0.37700
N1619       N  0.56683132  0.33217138  0.89772139    -0.37100
N1620       N  0.47101928  0.59214067  0.91420090    -0.37100
C1621       C  0.56993729  0.59627141  0.85456963    -0.03800
C1622       C  0.55631441  0.58854768  0.81199273    -0.00900
C1623       C  0.52253819  0.61781479  0.79086779     0.04100
C1624       C  0.50310051  0.66169674  0.80884835    -0.03800
C1625       C  0.51410013  0.66808893  0.85219055    -0.00900
C1626       C  0.54852582  0.63914064  0.87377556     0.04100
C1627       C  0.57267265  0.54621946  0.79002558     0.38700
C1628       C  0.48389867  0.69842014  0.87873382     0.38700
C1629       C  0.54885647  0.65094602  0.91867960     0.37100
C1630       C  0.50535583  0.59791373  0.75121262     0.37100
N1631       N  0.53903608  0.66449621  0.95238130    -0.37700
N1632       N  0.49306346  0.58256163  0.71868397    -0.37700
N1633       N  0.46317562  0.71917553  0.90468506    -0.37100
N1634       N  0.58224151  0.51281343  0.77017922    -0.37100
C1635       C  0.65409041  0.54901235  0.85244576    -0.03800
C1636       C  0.68581740  0.58926306  0.84916575    -0.00900
C1637       C  0.73454558  0.58800876  0.83183998     0.04100
C1638       C  0.75435317  0.55027900  0.80510051    -0.03800
C1639       C  0.71874219  0.51361993  0.80030501    -0.00900
C1640       C  0.67393495  0.51057123  0.82538417     0.04100
C1641       C  0.66617266  0.63588144  0.85802025     0.38700
C1642       C  0.72812798  0.47679242  0.76877429     0.38700
C1643       C  0.64875173  0.46642864  0.81904234     0.37100
C1644       C  0.76305457  0.62849875  0.84278531     0.37100
N1645       N  0.63148725  0.42996310  0.81129121    -0.37700
N1646       N  0.78451386  0.66140173  0.85385277    -0.37700
N1647       N  0.73482191  0.44671260  0.74407553    -0.37100
N1648       N  0.65102395  0.67381213  0.86311833    -0.37100
C1649       C  0.49079897  0.79843620  0.69320224    -0.03800
C1650       C  0.52951920  0.77164595  0.67838331    -0.00900
C1651       C  0.52395515  0.73918676  0.64566102     0.04100
C1652       C  0.64564980  0.75393088  0.96700089    -0.03800
C1653       C  0.60160192  0.77154160  0.95506682    -0.00900
C1654       C  0.57630363  0.79930413  0.98414872     0.04100
C1655       C  0.57507864  0.76947990  0.69997273     0.38700
C1656       C  0.58230905  0.75703638  0.91513890     0.38700
C1657       C  0.52512871  0.80193481  0.98115482     0.37100
C1658       C  0.56744340  0.71811317  0.62987384     0.37100
N1659       N  0.48418138  0.80284585  0.97958865    -0.37700
N1660       N  0.60349980  0.70328911  0.61925814    -0.37700
N1661       N  0.57031054  0.74794383  0.88100874    -0.37100
N1662       N  0.61194982  0.75913936  0.71307590    -0.37100
C1663       C  0.75150134  0.87885062  0.67941084    -0.03800
C1664       C  0.72338205  0.00615976  0.98467444    -0.00900
C1665       C  0.69316392  0.02354271  0.95351469     0.04100
C1666       C  0.65827912  0.05327740  0.96992366    -0.03800
C1667       C  0.69385927  0.83598932  0.72007983    -0.00900
C1668       C  0.73268162  0.86634779  0.71945305     0.04100
C1669       C  0.72156373  0.95540262  0.99128059     0.38700
C1670       C  0.67629398  0.81738026  0.75997486     0.38700
C1671       C  0.75218458  0.88343532  0.75950814     0.37100
C1672       C  0.68319352  0.99372988  0.91680116     0.37100
N1673       N  0.76603825  0.89710589  0.79214408    -0.37700
N1674       N  0.67655634  0.96786704  0.88866839    -0.37700
N1675       N  0.66436515  0.80302844  0.79270015    -0.37100
N1676       N  0.71465220  0.91516204  0.99516755    -0.37100
C1677       C  0.83178567  0.84375336  0.98627250    -0.03800
C1678       C  0.85240444  0.81627484  0.69652755    -0.00900
C1679       C  0.81728734  0.78176369  0.70050240     0.04100
C1680       C  0.80570927  0.75415203  0.66584773    -0.03800
C1681       C  0.83132263  0.76541364  0.95959668    -0.00900
C1682       C  0.85252031  0.80919846  0.96072510     0.04100
C1683       C  0.85779517  0.84623328  0.73292499     0.38700
C1684       C  0.80597726  0.75540876  0.92068716     0.38700
C1685       C  0.90234859  0.81164940  0.95185288     0.37100
C1686       C  0.79022284  0.77522162  0.73898913     0.37100
N1687       N  0.94291116  0.81435878  0.94821233    -0.37700
N1688       N  0.76726446  0.77079025  0.76910033    -0.37700
N1689       N  0.78316174  0.75146188  0.89010381    -0.37100
N1690       N  0.85487469  0.86484230  0.76560971    -0.37100
C1691       C  0.74192958  0.55406085  0.95299703    -0.03800
C1692       C  0.69959650  0.53211373  0.65502016    -0.00900
C1693       C  0.66551890  0.52753397  0.68764399     0.04100
C1694       C  0.65252950  0.56833546  0.71164025    -0.03800
C1695       C  0.70094835  0.59874601  0.00695031    -0.00900
C1696       C  0.72153559  0.59698838  0.96690514     0.04100
C1697       C  0.71767076  0.49060558  0.63344785     0.38700
C1698       C  0.70443311  0.64237173  0.03135066     0.38700
C1699       C  0.72397833  0.64056310  0.94263320     0.37100
C1700       C  0.64204129  0.48267851  0.69477064     0.37100
N1701       N  0.72556982  0.67719022  0.92609805    -0.37700
N1702       N  0.62356474  0.44668303  0.70097122    -0.37700
N1703       N  0.70783876  0.67761471  0.05033724    -0.37100
N1704       N  0.73443812  0.45753527  0.61745001    -0.37100
loop_ 
_geom_bond_atom_site_label_1 
_geom_bond_atom_site_label_2 
_geom_bond_distance 
_geom_bond_site_symmetry_2 
_ccdc_geom_bond_type 
O1            C4   1.270       .  A
O1           Cd6   2.814       .  S
C2            O7   1.256       .  A
C2          O579   1.259       .  A
C2          C555   1.497       .  S
O3            C9   1.294       .  A
O3        Cd1142   2.645   1_554  S
C4           O12   1.292       .  A
C4           C57   1.672       .  S
C5           O10   1.267       .  A
C5         O1144   1.248   1_554  A
C5          C544   1.419   1_554  S
Cd6          O12   2.746       .  S
Cd6           O7   2.480       .  S
Cd6           O8   2.342       .  S
Cd6         O571   2.607       .  S
Cd6         O581   2.709       .  S
Cd6         O579   2.416       .  S
Cd6         O578   2.362       .  S
O8          C573   1.250       .  A
C9           O13   1.268       .  A
C9           C54   1.636       .  S
O10       Cd1142   2.387   1_554  S
O11        C1138   1.260       .  A
O11       Cd1142   2.418       .  S
O13       Cd1142   2.762   1_554  S
O14          C17   1.271       .  A
O14       Cd1155   2.737       .  S
C15          O20   1.274       .  A
C15        O1160   1.263   1_545  A
C15         C527   1.480       .  S
O16          C22   1.288       .  A
O16         Cd19   2.496   1_545  S
C17          O25   1.295       .  A
C17          C58   1.663       .  S
C18          O23   1.282       .  A
C18         O589   1.289       .  A
C18         C541   1.457       .  S
Cd19         O26   2.777   1_565  S
Cd19         O24   2.365       .  S
Cd19         O23   2.191       .  S
Cd19        O582   2.510       .  S
Cd19        O593   2.743       .  S
Cd19        O588   2.327       .  S
Cd19        O589   2.373       .  S
O20       Cd1155   2.430   1_545  S
O21        C1154   1.251       .  A
O21       Cd1155   2.165   1_556  S
C22          O26   1.270       .  A
C22          C60   1.640       .  S
O24         C583   1.284       .  A
O25       Cd1155   2.745       .  S
O27          C30   1.264       .  A
O27        Cd600   2.720       .  S
C28          O33   1.275       .  A
C28         O605   1.262       .  A
C28         C530   1.499       .  S
O29          C35   1.286       .  A
O29         Cd32   2.674   1_545  S
C30          O38   1.295       .  A
C30          C56   1.625       .  S
C31          O36   1.268       .  A
C31        O1170   1.272       .  A
C31         C513   1.452       .  S
Cd32         O39   2.676       .  S
Cd32         O37   2.244   1_554  S
Cd32         O36   2.373       .  S
Cd32       O1163   2.724   1_554  S
Cd32       O1174   2.680   1_554  S
Cd32       O1169   2.531   1_564  S
Cd32       O1170   2.300       .  S
O33        Cd600   2.617       .  S
O34         C599   1.266       .  A
O34        Cd600   2.260       .  S
C35          O39   1.271   1_545  A
C35          C59   1.645       .  S
O37        C1164   1.268   1_565  A
O38        Cd600   2.607       .  S
O40          C43   1.262       .  A
O40        Cd613   2.423       .  S
C41          O50   1.277       .  A
C41          O46   1.287       .  A
C41          C53   1.656       .  S
O42          C48   1.259       .  A
O42         Cd45   2.454       .  S
C43         O619   1.279       .  A
C43         C516   1.496       .  S
C44          O49   1.270       .  A
C44          O47   1.284       .  A
C44          C55   1.623       .  S
Cd45         O51   2.416       .  S
Cd45         O49   2.603       .  S
Cd45         O47   2.914       .  S
Cd45       O1176   2.447   1_554  S
Cd45       O1188   2.425       .  S
Cd45       O1186   2.694   1_554  S
Cd45       O1182   2.625   1_554  S
O46        Cd613   2.647       .  S
C48        O1188   1.262       .  A
C48         C558   1.480       .  S
O50        Cd613   2.779       .  S
O51        C1179   1.262   1_554  A
O52         C616   1.272       .  A
O52        Cd613   2.387       .  S
C53         C471   1.702       .  S
C53         C485   1.619       .  S
C53         C499   1.757       .  S
C54         C446   1.638       .  S
C54         C457   1.631       .  S
C54         C502   1.716       .  S
C55         C418   1.637       .  S
C55         C429   1.730       .  S
C55         C488   1.636       .  S
C56         C390   1.639       .  S
C56         C401   1.599       .  S
C56         C432   1.724       .  S
C57         C359   1.621       .  S
C57         C373   1.737       .  S
C57         C460   1.608       .  S
C58         C331   1.628       .  S
C58         C345   1.628       .  S
C58         C376   1.714       .  S
C59         C306   1.628       .  S
C59         C317   1.687       .  S
C59         C404   1.582   1_545  S
C60         C292   1.657       .  S
C60         C320   1.698       .  S
C60         C348   1.637   1_545  S
O61         C632   1.273       .  A
O61        Cd634   2.485       .  S
C62          O71   1.250       .  A
C62          O67   1.291       .  A
C62         C113   1.620       .  S
O63          C69   1.266   1_455  A
O63         Cd66   2.757       .  S
C64          O72   1.257   1_556  A
C64        O1197   1.281       .  A
C64         C261   1.452       .  S
C65          O70   1.270       .  A
C65        O1204   1.255       .  A
C65         C275   1.487   1_554  S
Cd66         O73   2.759   1_455  S
Cd66         O72   2.207       .  S
Cd66         O70   2.475       .  S
Cd66       O1197   2.408   1_554  S
Cd66       O1207   2.809   1_554  S
Cd66       O1203   2.727   1_554  S
Cd66       O1204   2.292       .  S
O67        Cd634   2.641       .  S
O68         C633   1.263       .  A
O68        Cd634   2.307       .  S
C69          O73   1.296       .  A
C69         C120   1.668       .  S
O71        Cd634   2.713       .  S
O74          C77   1.269   1_554  A
O74         Cd79   2.424   1_554  S
C75          O84   1.275       .  A
C75          O80   1.283       .  A
C75         C117   1.630       .  S
O76          C82   1.282       .  A
O76        Cd647   2.609   1_655  S
C77        O1221   1.262       .  A
C77         C264   1.464       .  S
C78          O83   1.265       .  A
C78         O649   1.269       .  A
C78         C247   1.482       .  S
Cd79         O84   2.802   1_556  S
Cd79         O80   2.588   1_556  S
Cd79         O81   2.379       .  S
Cd79       O1212   2.624   1_455  S
Cd79       O1222   2.751       .  S
Cd79       O1221   2.399       .  S
Cd79       O1219   2.444       .  S
O81        C1214   1.264       .  A
C82          O86   1.261   1_655  A
C82         C119   1.640       .  S
O83        Cd647   2.462       .  S
O85         C645   1.274       .  A
O85        Cd647   2.349       .  S
O86        Cd647   2.787       .  S
O87          C90   1.276       .  A
O87         Cd92   2.384       .  S
C88          O97   1.253       .  A
C88          O93   1.287       .  A
C88         C118   1.623       .  S
O89          C95   1.281       .  A
O89       Cd1228   2.631       .  S
C90         O666   1.259       .  A
C90         C233   1.447       .  S
C91          O96   1.271       .  A
C91        O1230   1.272       .  A
C91        C1386   1.489       .  S
Cd92         O97   2.739       .  S
Cd92         O93   2.623       .  S
Cd92         O94   2.369       .  S
Cd92        O657   2.611       .  S
Cd92        O667   2.811       .  S
Cd92        O666   2.223       .  S
Cd92        O664   2.462       .  S
O94         C659   1.255       .  A
C95          O99   1.282       .  A
C95         C115   1.603       .  S
O96       Cd1228   2.405       .  S
O98        C1226   1.279       .  A
O98       Cd1228   2.335   1_556  S
O99       Cd1228   2.725       .  S
O100        C103   1.272       .  A
O100       Cd105   2.475       .  S
C101        O110   1.287       .  A
C101        O106   1.274       .  A
C101        C116   1.632       .  S
O102        C108   1.282       .  A
O102      Cd1241   2.583       .  S
C103        O679   1.271       .  A
C103        C278   1.477       .  S
C104        O109   1.284       .  A
C104       O1243   1.288       .  A
C104       C1372   1.469       .  S
Cd105       O110   2.781       .  S
Cd105       O106   2.624       .  S
Cd105       O107   2.248       .  S
Cd105       O670   2.539       .  S
Cd105       O680   2.774       .  S
Cd105       O679   2.190       .  S
Cd105       O677   2.266       .  S
O107        C672   1.277       .  A
C108        O112   1.281       .  A
C108        C114   1.615       .  S
O109      Cd1241   2.349       .  S
O111       C1239   1.289       .  A
O111      Cd1241   2.184   1_556  S
O112      Cd1241   2.629       .  S
C113        C205   1.599       .  S
C113        C219   1.740       .  S
C113        C362   1.639       .  S
C114        C191   1.623       .  S
C114        C222   1.712       .  S
C114        C415   1.671       .  S
C115        C163   1.601       .  S
C115        C180   1.735       .  S
C115        C303   1.620       .  S
C116        C177   1.735       .  S
C116        C194   1.629       .  S
C116        C474   1.688       .  S
C117        C135   1.619       .  S
C117        C152   1.724       .  S
C117        C334   1.642       .  S
C118        C149   1.729       .  S
C118        C166   1.586       .  S
C118        C387   1.654   1_545  S
C119        C121   1.724       .  S
C119        C138   1.589       .  S
C119        C289   1.651       .  S
C120        C124   1.703       .  S
C120        C208   1.592   1_655  S
C120        C443   1.619       .  S
C121        C122   1.435       .  A
C121        C126   1.485       .  A
C122        C123   1.481       .  A
C122        C127   1.440       .  S
C123        C124   1.468       .  A
C123        C130   1.452       .  S
C124        C125   1.418       .  A
C125        C126   1.472       .  A
C125        C128   1.448       .  S
C126        C129   1.446       .  S
C127        N134   1.155       .  T
C128        N133   1.156       .  T
C129        N131   1.159       .  T
C130        N132   1.158       .  T
C135        C136   1.414       .  A
C135        C140   1.454       .  A
C136        C137   1.419       .  A
C136        C141   1.427       .  S
C137        C138   1.436   1_455  A
C137        C144   1.456       .  S
C138        C139   1.421       .  A
C139        C140   1.426   1_655  A
C139        C142   1.446       .  S
C140        C143   1.464   1_455  S
C141        N148   1.153       .  T
C142        N147   1.159       .  T
C143        N145   1.159       .  T
C144        N146   1.155       .  T
C149        C150   1.447       .  A
C149        C154   1.470       .  A
C150        C151   1.491       .  A
C150        C155   1.445   1_545  S
C151        C152   1.466       .  A
C151        C158   1.441   1_545  S
C152        C153   1.434       .  A
C153        C154   1.477       .  A
C153        C156   1.442       .  S
C154        C157   1.438       .  S
C155        N162   1.157       .  T
C156        N161   1.155       .  T
C157        N159   1.155       .  T
C158        N160   1.156       .  T
C163        C164   1.467       .  A
C163        C168   1.385       .  A
C164        C165   1.418       .  A
C164        C169   1.461       .  S
C165        C166   1.409       .  A
C165        C172   1.445       .  S
C166        C167   1.442       .  A
C167        C168   1.377       .  A
C167        C170   1.450       .  S
C168        C171   1.433       .  S
C169        N176   1.159       .  T
C170        N175   1.156       .  T
C171        N173   1.152       .  T
C172        N174   1.157       .  T
C177        C178   1.446       .  A
C177        C182   1.463       .  A
C178        C179   1.480       .  A
C178        C183   1.430       .  S
C179        C180   1.454       .  A
C179        C186   1.441       .  S
C180        C181   1.453       .  A
C181        C182   1.489       .  A
C181        C184   1.443       .  S
C182        C185   1.438       .  S
C183        N190   1.154       .  T
C184        N189   1.157       .  T
C185        N187   1.155       .  T
C186        N188   1.156       .  T
C191        C192   1.450       .  A
C191        C196   1.392       .  A
C192        C193   1.456       .  A
C192        C197   1.451       .  S
C193        C194   1.461       .  A
C193        C200   1.443       .  S
C194        C195   1.384       .  A
C195        C196   1.408       .  A
C195        C198   1.431       .  S
C196        C199   1.434       .  S
C197        N204   1.158       .  T
C198        N203   1.153       .  T
C199        N201   1.154       .  T
C200        N202   1.158       .  T
C205        C206   1.412       .  A
C205        C210   1.437       .  A
C206        C207   1.422   1_455  A
C206        C211   1.450       .  S
C207        C208   1.438   1_655  A
C207        C214   1.437       .  S
C208        C209   1.433       .  A
C209        C210   1.418       .  A
C209        C212   1.448       .  S
C210        C213   1.447       .  S
C211        N218   1.158       .  T
C212        N217   1.155       .  T
C213        N215   1.153       .  T
C214        N216   1.151       .  T
C219        C220   1.448       .  A
C219        C224   1.472       .  A
C220        C221   1.494       .  A
C220        C225   1.444       .  S
C221        C222   1.457       .  A
C221        C228   1.439       .  S
C222        C223   1.429       .  A
C223        C224   1.479       .  A
C223        C226   1.438       .  S
C224        C227   1.433       .  S
C225        N232   1.156       .  T
C226        N231   1.155       .  T
C227        N229   1.154       .  T
C228        N230   1.155       .  T
C233        C234   1.415       .  A
C233        C238   1.412       .  A
C234        C803   1.387       .  A
C234        C807   1.449       .  S
C235       C1370   1.415       .  A
C235       C1372   1.410       .  A
C235        C242   1.449       .  S
C236        C672   1.423       .  S
C236        C237   1.393       .  A
C236        C803   1.404       .  A
C237        C238   1.386       .  A
C237        C240   1.446       .  S
C238        C241   1.436       .  S
C239       C1370   1.445   1_556  S
C239        N246   1.157       .  T
C240        N245   1.154       .  T
C241        N243   1.151       .  T
C242        N244   1.157       .  T
C247        C248   1.419   1_545  A
C247        C820   1.392       .  A
C248        C249   1.430   1_565  A
C248        C253   1.445       .  S
C249        C250   1.416       .  A
C249        C256   1.437   1_545  S
C250        C659   1.485       .  S
C250        C819   1.405       .  A
C251        C252   1.381       .  A
C251       C1386   1.409   1_556  A
C251        C254   1.455       .  S
C252       C1383   1.392       .  A
C252        C255   1.431       .  S
C253        N260   1.157       .  T
C254        N259   1.155       .  T
C255        N257   1.147       .  T
C256        N258   1.155       .  T
C261        C262   1.418   1_556  A
C261       C1402   1.400       .  A
C262        C263   1.397       .  A
C262        C267   1.449       .  S
C263        C264   1.398   1_554  A
C263        C270   1.440       .  S
C264       C1401   1.398       .  A
C265        C266   1.398       .  A
C265        C832   1.410       .  A
C265        C268   1.440       .  S
C266        C829   1.401       .  A
C266        C269   1.445       .  S
C267        N274   1.156       .  T
C268        N273   1.152       .  T
C269        N271   1.157       .  T
C270        N272   1.155       .  T
C275        C280   1.416       .  A
C275       C1412   1.423       .  A
C276        C277   1.381       .  A
C276        C843   1.412       .  A
C276        C281   1.455       .  S
C277        C278   1.394       .  A
C277        C284   1.433       .  S
C278        C847   1.419       .  A
C279        C280   1.420       .  A
C279       C1414   1.408       .  A
C279        C282   1.444       .  S
C280        C283   1.437   1_556  S
C281        N288   1.158       .  T
C282        N287   1.157       .  T
C283        N285   1.156       .  T
C284        N286   1.148       .  T
C289        C290   1.412       .  A
C289        C294   1.444       .  A
C290        C291   1.456       .  A
C290        C295   1.451       .  S
C291        C292   1.450       .  A
C291        C298   1.444       .  S
C292        C293   1.437       .  A
C293        C294   1.442       .  A
C293        C296   1.450       .  S
C294        C297   1.454       .  S
C295        N302   1.157       .  T
C296        N301   1.158       .  T
C297        N299   1.157       .  T
C298        N300   1.158       .  T
C303        C304   1.412       .  A
C303        C308   1.444       .  A
C304        C305   1.406       .  A
C304        C309   1.437       .  S
C305        C306   1.413       .  A
C305        C312   1.443       .  S
C306        C307   1.440       .  A
C307        C308   1.466       .  A
C307        C310   1.427       .  S
C308        C311   1.440       .  S
C309        N316   1.156       .  T
C310        N315   1.151       .  T
C311        N313   1.156       .  T
C312        N314   1.159       .  T
C317        C318   1.457       .  A
C317        C322   1.426       .  A
C318        C319   1.477       .  A
C318        C323   1.438       .  S
C319        C320   1.430       .  A
C319        C326   1.444       .  S
C320        C321   1.450       .  A
C321        C322   1.459       .  A
C321        C324   1.426       .  S
C322        C325   1.431       .  S
C323        N330   1.155       .  T
C324        N329   1.149       .  T
C325        N327   1.153   1_545  T
C326        N328   1.157       .  T
C331        C332   1.400       .  A
C331        C336   1.447   1_655  A
C332        C333   1.375   1_665  A
C332        C337   1.431   1_565  S
C333        C334   1.415       .  A
C333        C340   1.428       .  S
C334        C335   1.445   1_545  A
C335        C336   1.481       .  A
C335        C338   1.436       .  S
C336        C339   1.444       .  S
C337        N344   1.149       .  T
C338        N343   1.155       .  T
C339        N341   1.157       .  T
C340        N342   1.148       .  T
C345        C346   1.421       .  A
C345        C350   1.422       .  A
C346        C347   1.432       .  A
C346        C351   1.449       .  S
C347        C348   1.442       .  A
C347        C354   1.439   1_565  S
C348        C349   1.440       .  A
C349        C350   1.439       .  A
C349        C352   1.436       .  S
C350        C353   1.441       .  S
C351        N358   1.157       .  T
C352        N357   1.154       .  T
C353        N355   1.156       .  T
C354        N356   1.154       .  T
C359        C360   1.423   1_655  A
C359        C364   1.438   1_655  A
C360        C361   1.434       .  A
C360        C365   1.452       .  S
C361        C362   1.438       .  A
C361        C368   1.437       .  S
C362        C363   1.413       .  A
C363        C364   1.445       .  A
C363        C366   1.443       .  S
C364        C367   1.443       .  S
C365        N372   1.157   1_455  T
C366        N371   1.155       .  T
C367        N369   1.157       .  T
C368        N370   1.152       .  T
C373        C374   1.458       .  A
C373        C378   1.455       .  A
C374        C375   1.489       .  A
C374        C379   1.446   1_655  S
C375        C376   1.453       .  A
C375        C382   1.440   1_655  S
C376        C377   1.424       .  A
C377        C378   1.474       .  A
C377        C380   1.432       .  S
C378        C381   1.430       .  S
C379        N386   1.157       .  T
C380        N385   1.153       .  T
C381        N383   1.153       .  T
C382        N384   1.156       .  T
C387        C388   1.426       .  A
C387        C392   1.412       .  A
C388        C389   1.437       .  A
C388        C393   1.432       .  S
C389        C390   1.433       .  A
C389        C396   1.432       .  S
C390        C391   1.440       .  A
C391        C392   1.444       .  A
C391        C394   1.440       .  S
C392        C395   1.446       .  S
C393        N400   1.148       .  T
C394        N399   1.157       .  T
C395        N397   1.157       .  T
C396        N398   1.149       .  T
C401        C402   1.446       .  A
C401        C406   1.449       .  A
C402        C403   1.423       .  A
C402        C407   1.449       .  S
C403        C404   1.416       .  A
C403        C410   1.438       .  S
C404        C405   1.394   1_565  A
C405        C406   1.407   1_545  A
C405        C408   1.448       .  S
C406        C409   1.442   1_565  S
C407        N414   1.156       .  T
C408        N413   1.157       .  T
C409        N411   1.152       .  T
C410        N412   1.154       .  T
C415        C416   1.409       .  A
C415        C420   1.463       .  A
C416        C417   1.404       .  A
C416        C421   1.435       .  S
C417        C418   1.397       .  A
C417        C424   1.444       .  S
C418        C419   1.454       .  A
C419        C420   1.500       .  A
C419        C422   1.442       .  S
C420        C423   1.430       .  S
C421        N428   1.155       .  T
C422        N427   1.157       .  T
C423        N425   1.153       .  T
C424        N426   1.158       .  T
C429        C430   1.452       .  A
C429        C434   1.470       .  A
C430        C431   1.468       .  A
C430        C435   1.437       .  S
C431        C432   1.450       .  A
C431        C438   1.440       .  S
C432        C433   1.446       .  A
C433        C434   1.490       .  A
C433        C436   1.444       .  S
C434        C437   1.443       .  S
C435        N442   1.156       .  T
C436        N441   1.157       .  T
C437        N439   1.158       .  T
C438        N440   1.157       .  T
C443        C444   1.434       .  A
C443        C448   1.408       .  A
C444        C445   1.447       .  A
C444        C449   1.443       .  S
C445        C446   1.423       .  A
C445        C452   1.453       .  S
C446        C447   1.440       .  A
C447        C448   1.429       .  A
C447        C450   1.425       .  S
C448        C451   1.455       .  S
C449        N456   1.158       .  T
C450        N455   1.148       .  T
C451        N453   1.157       .  T
C452        N454   1.157       .  T
C457        C458   1.426       .  A
C457        C462   1.444       .  A
C458        C459   1.421       .  A
C458        C463   1.440       .  S
C459        C460   1.434       .  A
C459        C466   1.444       .  S
C460        C461   1.399       .  A
C461        C462   1.412       .  A
C461        C464   1.443       .  S
C462        C465   1.430       .  S
C463        N470   1.157       .  T
C464        N469   1.157       .  T
C465        N467   1.149       .  T
C466        N468   1.153       .  T
C471        C472   1.442       .  A
C471        C476   1.467       .  A
C472        C473   1.417       .  A
C472        C477   1.413       .  S
C473        C474   1.419       .  A
C473        C480   1.452       .  S
C474        C475   1.439       .  A
C475        C476   1.492       .  A
C475        C478   1.447       .  S
C476        C479   1.433       .  S
C477        N484   1.141       .  T
C478        N483   1.157       .  T
C479        N481   1.153       .  T
C480        N482   1.157       .  T
C485        C486   1.404       .  A
C485        C490   1.457       .  A
C486        C487   1.423       .  A
C486        C491   1.451       .  S
C487        C488   1.474       .  A
C487        C494   1.452       .  S
C488        C489   1.410       .  A
C489        C490   1.419       .  A
C489        C492   1.446       .  S
C490        C493   1.445       .  S
C491        N498   1.156       .  T
C492        N497   1.156       .  T
C493        N495   1.157       .  T
C494        N496   1.160       .  T
C499        C500   1.455       .  A
C499        C504   1.483       .  A
C500        C501   1.455       .  A
C500        C505   1.437       .  S
C501        C502   1.441       .  A
C501        C508   1.429       .  S
C502        C503   1.450       .  A
C503        C504   1.504       .  A
C503        C506   1.448       .  S
C504        C507   1.437       .  S
C505        N512   1.158       .  T
C506        N511   1.157       .  T
C507        N509   1.157       .  T
C508        N510   1.154       .  T
C513        C514   1.406       .  A
C513       C1654   1.410   1_554  A
C514        C515   1.398   1_554  A
C514        C519   1.431       .  S
C515       C1652   1.384       .  A
C515        C522   1.437       .  S
C516        C517   1.413       .  A
C516       C1083   1.411       .  A
C517        C518   1.424       .  A
C517        C520   1.443       .  S
C518       C1081   1.412       .  A
C518        C521   1.441       .  S
C519        N526   1.152       .  T
C520        N525   1.156       .  T
C521        N523   1.157       .  T
C522        N524   1.157       .  T
C527        C532   1.413       .  A
C527       C1664   1.413   1_554  A
C528        C529   1.425       .  A
C528       C1095   1.397       .  A
C528        C533   1.439       .  S
C529        C530   1.418       .  A
C529        C536   1.443       .  S
C530       C1099   1.389       .  A
C531        C532   1.430   1_556  A
C531       C1666   1.418       .  A
C531        C534   1.439       .  S
C532        C535   1.445       .  S
C533        N540   1.154       .  T
C534        N539   1.156       .  T
C535        N537   1.158       .  T
C536        N538   1.157       .  T
C541        C546   1.428       .  A
C541       C1110   1.425       .  A
C542        C543   1.396       .  A
C542       C1677   1.424   1_554  A
C542        C547   1.445       .  S
C543        C544   1.395   1_554  A
C543        C550   1.443       .  S
C544       C1681   1.394       .  A
C545        C546   1.374       .  A
C545       C1112   1.382       .  A
C545        C548   1.444       .  S
C546        C549   1.457       .  S
C547        N554   1.156       .  T
C548        N553   1.152       .  T
C549        N551   1.158       .  T
C550        N552   1.157       .  T
C555        C560   1.401       .  A
C555       C1124   1.421       .  A
C556        C557   1.421   1_556  A
C556       C1691   1.421       .  A
C556        C561   1.442       .  S
C557        C558   1.413       .  A
C557        C564   1.448       .  S
C558       C1695   1.403       .  A
C559        C560   1.385       .  A
C559       C1126   1.407       .  A
C559        C562   1.447       .  S
C560        C563   1.440       .  S
C561        N568   1.158       .  T
C562        N567   1.154       .  T
C563        N565   1.152       .  T
C564        N566   1.157       .  T
O569        C572   1.264       .  A
O569       Cd574   2.768       .  S
C570       O1147   1.258       .  A
C570        O575   1.275       .  A
C570       C1123   1.483       .  S
O571        C577   1.295       .  A
C572        O580   1.287       .  A
C572        C625   1.641       .  S
C573        O578   1.269       .  A
C573       C1112   1.431       .  S
Cd574      O1139   2.635       .  S
Cd574      O1149   2.741       .  S
Cd574       O580   2.672       .  S
Cd574      O1147   2.347       .  S
Cd574       O575   2.450       .  S
Cd574      O1146   2.356       .  S
Cd574       O576   2.170       .  S
O576       C1141   1.242       .  A
C577        O581   1.267       .  A
C577        C622   1.621       .  S
O582        C585   1.295       .  A
C583        O588   1.284       .  A
C583       C1095   1.453       .  S
O584        C590   1.301       .  A
O584       Cd587   2.621   1_545  S
C585        O593   1.281       .  A
C585        C626   1.635       .  S
C586        O591   1.266       .  A
C586       O1157   1.252       .  A
C586       C1109   1.484       .  S
Cd587      O1150   2.686       .  S
Cd587       O594   2.740       .  S
Cd587      O1161   2.733       .  S
Cd587       O592   2.269       .  S
Cd587      O1156   2.403       .  S
Cd587       O591   2.358       .  S
Cd587      O1157   2.459       .  S
C590        O594   1.266   1_545  A
C590        C628   1.636       .  S
O592       C1151   1.247       .  A
O595        C598   1.258       .  A
O595      Cd1168   2.711       .  S
C596       O1173   1.261       .  A
C596        O601   1.279       .  A
C596       C1098   1.455       .  S
O597        C603   1.274       .  A
O597       Cd600   2.810       .  S
C598        O606   1.288       .  A
C598        C624   1.605       .  S
C599        O604   1.270       .  A
C599       C1081   1.479       .  S
Cd600       O607   2.804   1_565  S
Cd600       O605   2.200       .  S
Cd600       O604   2.465       .  S
O601      Cd1168   2.426       .  S
O602       C1167   1.259       .  A
O602      Cd1168   2.315       .  S
C603        O607   1.293   1_565  A
C603        C627   1.679   1_565  S
O606      Cd1168   2.550       .  S
O608        C611   1.260       .  A
O608      Cd1181   2.395       .  S
C609        O618   1.281       .  A
C609        O614   1.291       .  A
C609        C621   1.662       .  S
O610        C616   1.278       .  A
O610       Cd613   2.496       .  S
C611       O1187   1.280       .  A
C611       C1084   1.475       .  S
C612        O617   1.297       .  A
C612        O615   1.276       .  A
C612        C623   1.622       .  S
Cd613       O619   2.475       .  S
Cd613       O617   2.781       .  S
Cd613       O615   2.784       .  S
O614      Cd1181   2.700       .  S
C616       C1126   1.486       .  S
O618      Cd1181   2.714       .  S
O620       C1184   1.287       .  A
O620      Cd1181   2.223       .  S
C621       C1039   1.690       .  S
C621       C1053   1.616       .  S
C621       C1067   1.740       .  S
C622       C1014   1.624       .  S
C622       C1025   1.630       .  S
C622       C1070   1.704       .  S
C623        C986   1.652       .  S
C623        C997   1.744       .  S
C623       C1056   1.658       .  S
C624        C958   1.641       .  S
C624        C969   1.592       .  S
C624       C1000   1.722       .  S
C625        C927   1.609   1_655  S
C625        C941   1.737       .  S
C625       C1028   1.631       .  S
C626        C899   1.625   1_655  S
C626        C913   1.607       .  S
C626        C944   1.716       .  S
C627        C874   1.661       .  S
C627        C885   1.737       .  S
C627        C972   1.589   1_545  S
C628        C860   1.643       .  S
C628        C888   1.716       .  S
C628        C916   1.572       .  S
O629       C1200   1.269       .  A
O629      Cd1202   2.480       .  S
C630        O639   1.265       .  A
C630        O635   1.289       .  A
C630        C681   1.626       .  S
O631        C637   1.292   1_655  A
O631       Cd634   2.754   1_655  S
C632        O640   1.252       .  A
C632        C829   1.448       .  S
C633        O638   1.273       .  A
C633        C843   1.482       .  S
Cd634       O641   2.788       .  S
Cd634       O640   2.227       .  S
Cd634       O638   2.496       .  S
O635      Cd1202   2.592       .  S
O636       C1201   1.256       .  A
O636      Cd1202   2.403       .  S
C637        O641   1.264       .  A
C637        C688   1.669   1_455  S
O639      Cd1202   2.729       .  S
O642        C645   1.271       .  A
O642       Cd647   2.279       .  S
C643        O652   1.276       .  A
C643        O648   1.275       .  A
C643        C685   1.609       .  S
O644        C650   1.288       .  A
O644      Cd1215   2.625       .  S
C645        C832   1.461       .  S
C646        O651   1.265       .  A
C646       O1217   1.264       .  A
C646        C815   1.487       .  S
Cd647       O652   2.777       .  S
Cd647       O648   2.629       .  S
Cd647       O649   2.344       .  S
C650        O654   1.267       .  A
C650        C687   1.645   1_455  S
O651      Cd1215   2.439       .  S
O653       C1213   1.265       .  A
O653      Cd1215   2.429       .  S
O654      Cd1215   2.794       .  S
O655        C658   1.275       .  A
O655       Cd660   2.424       .  S
C656        O665   1.264       .  A
C656        O661   1.288       .  A
C656        C686   1.629       .  S
O657        C663   1.265       .  A
C658       O1234   1.283       .  A
C658        C801   1.498       .  S
C659        O664   1.269       .  A
Cd660      O1225   2.610       .  S
Cd660      O1235   2.656       .  S
Cd660      O1234   2.373       .  S
Cd660       O665   2.748       .  S
Cd660       O661   2.594       .  S
Cd660      O1232   2.437       .  S
Cd660       O662   2.338       .  S
O662       C1227   1.273       .  A
C663        O667   1.289       .  A
C663        C683   1.603       .  S
O668        C671   1.258       .  A
O668       Cd673   2.418       .  S
C669        O678   1.263       .  A
C669        O674   1.298       .  A
C669        C684   1.630       .  S
O670        C676   1.281       .  A
C671       O1247   1.256       .  A
C671        C846   1.478       .  S
C672        O677   1.272       .  A
Cd673      O1238   2.629       .  S
Cd673      O1248   2.854       .  S
Cd673      O1247   2.496       .  S
Cd673       O678   2.739       .  S
Cd673       O674   2.648       .  S
Cd673      O1245   2.552       .  S
Cd673       O675   2.464       .  S
O675       C1240   1.259       .  A
C676        O680   1.269       .  A
C676        C682   1.611       .  S
C681        C773   1.594       .  S
C681        C787   1.708       .  S
C681        C930   1.619       .  S
C682        C759   1.596       .  S
C682        C790   1.681       .  S
C682        C983   1.642       .  S
C683        C731   1.621       .  S
C683        C748   1.756       .  S
C683        C871   1.631       .  S
C684        C745   1.741       .  S
C684        C762   1.612       .  S
C684       C1042   1.675       .  S
C685        C703   1.644       .  S
C685        C720   1.730       .  S
C685        C902   1.639       .  S
C686        C717   1.739       .  S
C686        C734   1.618       .  S
C686        C955   1.641   1_545  S
C687        C689   1.726       .  S
C687        C706   1.588   1_655  S
C687        C857   1.642       .  S
C688        C692   1.690       .  S
C688        C776   1.582   1_655  S
C688       C1011   1.609       .  S
C689        C690   1.436       .  A
C689        C694   1.490       .  A
C690        C691   1.477       .  A
C690        C695   1.439       .  S
C691        C692   1.464       .  A
C691        C698   1.453       .  S
C692        C693   1.411       .  A
C693        C694   1.469       .  A
C693        C696   1.451       .  S
C694        C697   1.440   1_655  S
C695        N702   1.155       .  T
C696        N701   1.156   1_655  T
C697        N699   1.158       .  T
C698        N700   1.158       .  T
C703        C704   1.420       .  A
C703        C708   1.469       .  A
C704        C705   1.422       .  A
C704        C709   1.433       .  S
C705        C706   1.429       .  A
C705        C712   1.447       .  S
C706        C707   1.409   1_455  A
C707        C708   1.429   1_655  A
C707        C710   1.453       .  S
C708        C711   1.457       .  S
C709        N716   1.156       .  T
C710        N715   1.160       .  T
C711        N713   1.158   1_455  T
C712        N714   1.151       .  T
C717        C718   1.455       .  A
C717        C722   1.459       .  A
C718        C719   1.497       .  A
C718        C723   1.443   1_545  S
C719        C720   1.462       .  A
C719        C726   1.445   1_545  S
C720        C721   1.436       .  A
C721        C722   1.479       .  A
C721        C724   1.435       .  S
C722        C725   1.430       .  S
C723        N730   1.157       .  T
C724        N729   1.152       .  T
C725        N727   1.151       .  T
C726        N728   1.157       .  T
C731        C732   1.465       .  A
C731        C736   1.387       .  A
C732        C733   1.429       .  A
C732        C737   1.462       .  S
C733        C734   1.420       .  A
C733        C740   1.442       .  S
C734        C735   1.448       .  A
C735        C736   1.387       .  A
C735        C738   1.442       .  S
C736        C739   1.433       .  S
C737        N744   1.159       .  T
C738        N743   1.155       .  T
C739        N741   1.152       .  T
C740        N742   1.155   1_545  T
C745        C746   1.444       .  A
C745        C750   1.467       .  A
C746        C747   1.484       .  A
C746        C751   1.441       .  S
C747        C748   1.452       .  A
C747        C754   1.429       .  S
C748        C749   1.458       .  A
C749        C750   1.506       .  A
C749        C752   1.442       .  S
C750        C753   1.444       .  S
C751        N758   1.156       .  T
C752        N757   1.157       .  T
C753        N755   1.157       .  T
C754        N756   1.153       .  T
C759        C760   1.429       .  A
C759        C764   1.385       .  A
C760        C761   1.441       .  A
C760        C765   1.434       .  S
C761        C762   1.437       .  A
C761        C768   1.429       .  S
C762        C763   1.405       .  A
C763        C764   1.419       .  A
C763        C766   1.434       .  S
C764        C767   1.436       .  S
C765        N772   1.153       .  T
C766        N771   1.154       .  T
C767        N769   1.157       .  T
C768        N770   1.154       .  T
C773        C774   1.420       .  A
C773        C778   1.427       .  A
C774        C775   1.421   1_455  A
C774        C779   1.451       .  S
C775        C776   1.436   1_655  A
C775        C782   1.445       .  S
C776        C777   1.431       .  A
C777        C778   1.410       .  A
C777        C780   1.446       .  S
C778        C781   1.442       .  S
C779        N786   1.158       .  T
C780        N785   1.156       .  T
C781        N783   1.152       .  T
C782        N784   1.154       .  T
C787        C788   1.435       .  A
C787        C792   1.470       .  A
C788        C789   1.477       .  A
C788        C793   1.446       .  S
C789        C790   1.452       .  A
C789        C796   1.438       .  S
C790        C791   1.423       .  A
C791        C792   1.462       .  A
C791        C794   1.442       .  S
C792        C795   1.438       .  S
C793        N800   1.157       .  T
C794        N799   1.156       .  T
C795        N797   1.156       .  T
C796        N798   1.154       .  T
C801        C802   1.418       .  A
C801        C806   1.405       .  A
C802       C1371   1.427       .  A
C802       C1375   1.440       .  S
C803        C810   1.456       .  S
C804       C1240   1.498       .  S
C804       C1371   1.419       .  A
C804        C805   1.402       .  A
C805        C806   1.388       .  A
C805        C808   1.435       .  S
C806        C809   1.436       .  S
C807        N814   1.156       .  T
C808        N813   1.149       .  T
C809        N811   1.149       .  T
C810        N812   1.156       .  T
C815        C816   1.412       .  A
C815       C1388   1.395       .  A
C816        C817   1.423       .  A
C816        C821   1.448   1_545  S
C817        C818   1.416       .  A
C817        C824   1.432       .  S
C818       C1227   1.489       .  S
C818       C1387   1.403       .  A
C819        C820   1.372       .  A
C819        C822   1.448       .  S
C820        C823   1.437       .  S
C821        N828   1.157       .  T
C822        N827   1.154       .  T
C823        N825   1.147       .  T
C824        N826   1.152   1_545  T
C829        C830   1.408       .  A
C830        C831   1.384       .  A
C830        C835   1.450       .  S
C831        C832   1.406       .  A
C831        C838   1.444       .  S
C833       C1400   1.410       .  A
C833        C834   1.405       .  A
C833        C836   1.441       .  S
C834       C1397   1.416       .  A
C834        C837   1.445       .  S
C835        N842   1.155       .  T
C836        N841   1.154       .  T
C837        N839   1.157       .  T
C838        N840   1.152       .  T
C843        C848   1.420       .  A
C844       C1411   1.412       .  A
C844        C845   1.402       .  A
C844        C849   1.445       .  S
C845        C846   1.410       .  A
C845        C852   1.440       .  S
C846       C1415   1.393       .  A
C847        C848   1.425       .  A
C847        C850   1.440       .  S
C848        C851   1.438       .  S
C849        N856   1.155       .  T
C850        N855   1.155       .  T
C851        N853   1.155       .  T
C852        N854   1.156       .  T
C857        C858   1.415       .  A
C857        C862   1.438       .  A
C858        C859   1.451       .  A
C858        C863   1.450       .  S
C859        C860   1.439       .  A
C859        C866   1.442       .  S
C860        C861   1.442       .  A
C861        C862   1.435       .  A
C861        C864   1.455       .  S
C862        C865   1.454       .  S
C863        N870   1.157       .  T
C864        N869   1.158       .  T
C865        N867   1.158       .  T
C866        N868   1.158       .  T
C871        C872   1.398       .  A
C871        C876   1.460       .  A
C872        C873   1.411       .  A
C872        C877   1.445       .  S
C873        C874   1.409       .  A
C873        C880   1.447       .  S
C874        C875   1.467       .  A
C875        C876   1.496       .  A
C875        C878   1.439       .  S
C876        C879   1.440       .  S
C877        N884   1.157       .  T
C878        N883   1.155       .  T
C879        N881   1.156       .  T
C880        N882   1.158       .  T
C885        C886   1.490       .  A
C885        C890   1.435       .  A
C886        C887   1.470       .  A
C886        C891   1.446       .  S
C887        C888   1.418       .  A
C887        C894   1.449       .  S
C888        C889   1.479       .  A
C889        C890   1.488       .  A
C889        C892   1.442       .  S
C890        C893   1.448       .  S
C891        N898   1.159   1_545  T
C892        N897   1.155       .  T
C893        N895   1.157       .  T
C894        N896   1.157       .  T
C899        C900   1.400   1_455  A
C899        C904   1.447       .  A
C900        C901   1.400   1_665  A
C900        C905   1.452       .  S
C901        C902   1.397       .  A
C901        C908   1.443       .  S
C902        C903   1.464   1_545  A
C903        C904   1.488       .  A
C903        C906   1.432       .  S
C904        C907   1.444       .  S
C905        N912   1.158       .  T
C906        N911   1.153       .  T
C907        N909   1.157       .  T
C908        N910   1.156       .  T
C913        C914   1.410       .  A
C913        C918   1.428       .  A
C914        C915   1.423   1_565  A
C914        C919   1.440       .  S
C915        C916   1.406       .  A
C915        C922   1.424       .  S
C916        C917   1.433   1_545  A
C917        C918   1.425       .  A
C917        C920   1.441       .  S
C918        C921   1.419       .  S
C919        N926   1.158       .  T
C920        N925   1.156       .  T
C921        N923   1.146       .  T
C922        N924   1.153       .  T
C927        C928   1.432       .  A
C927        C932   1.425       .  A
C928        C929   1.433       .  A
C928        C933   1.448       .  S
C929        C930   1.433       .  A
C929        C936   1.451       .  S
C930        C931   1.416       .  A
C931        C932   1.435       .  A
C931        C934   1.439       .  S
C932        C935   1.446       .  S
C933        N940   1.156   1_455  T
C934        N939   1.153       .  T
C935        N937   1.157       .  T
C936        N938   1.158       .  T
C941        C942   1.470       .  A
C941        C946   1.449       .  A
C942        C943   1.495       .  A
C942        C947   1.443   1_655  S
C943        C944   1.453       .  A
C943        C950   1.446   1_655  S
C944        C945   1.439       .  A
C945        C946   1.474       .  A
C945        C948   1.432       .  S
C946        C949   1.438       .  S
C947        N954   1.157       .  T
C948        N953   1.155       .  T
C949        N951   1.155       .  T
C950        N952   1.157       .  T
C955        C956   1.423       .  A
C955        C960   1.402       .  A
C956        C957   1.439       .  A
C956        C961   1.444       .  S
C957        C958   1.446       .  A
C957        C964   1.434       .  S
C958        C959   1.438       .  A
C959        C960   1.435       .  A
C959        C962   1.431       .  S
C960        C963   1.446       .  S
C961        N968   1.152       .  T
C962        N967   1.154       .  T
C963        N965   1.156       .  T
C964        N966   1.151       .  T
C969        C970   1.437       .  A
C969        C974   1.437       .  A
C970        C971   1.418       .  A
C970        C975   1.436       .  S
C971        C972   1.413       .  A
C971        C978   1.440       .  S
C972        C973   1.423   1_565  A
C973        C974   1.411   1_545  A
C973        C976   1.463       .  S
C974        C977   1.436   1_565  S
C975        N982   1.150       .  T
C976        N981   1.158       .  T
C977        N979   1.151       .  T
C978        N980   1.153       .  T
C983        C984   1.404       .  A
C983        C988   1.461       .  A
C984        C985   1.414       .  A
C984        C989   1.438       .  S
C985        C986   1.394       .  A
C985        C992   1.439       .  S
C986        C987   1.480       .  A
C987        C988   1.506       .  A
C987        C990   1.429       .  S
C988        C991   1.437       .  S
C989        N996   1.155       .  T
C990        N995   1.153       .  T
C991        N993   1.155       .  T
C992        N994   1.153       .  T
C997        C998   1.452       .  A
C997       C1002   1.478       .  A
C998        C999   1.473       .  A
C998       C1003   1.432       .  S
C999       C1000   1.447       .  A
C999       C1006   1.434       .  S
C1000      C1001   1.435       .  A
C1001      C1002   1.493       .  A
C1001      C1004   1.446       .  S
C1002      C1005   1.439       .  S
C1003      N1010   1.155       .  T
C1004      N1009   1.156       .  T
C1005      N1007   1.158       .  T
C1006      N1008   1.159       .  T
C1011      C1012   1.435       .  A
C1011      C1016   1.409       .  A
C1012      C1013   1.438       .  A
C1012      C1017   1.447       .  S
C1013      C1014   1.415       .  A
C1013      C1020   1.448       .  S
C1014      C1015   1.439       .  A
C1015      C1016   1.426       .  A
C1015      C1018   1.428       .  S
C1016      C1019   1.456       .  S
C1017      N1024   1.158       .  T
C1018      N1023   1.150       .  T
C1019      N1021   1.157       .  T
C1020      N1022   1.156       .  T
C1025      C1026   1.422       .  A
C1025      C1030   1.430       .  A
C1026      C1027   1.432       .  A
C1026      C1031   1.444       .  S
C1027      C1028   1.447       .  A
C1027      C1034   1.444       .  S
C1028      C1029   1.408       .  A
C1029      C1030   1.416       .  A
C1029      C1032   1.441       .  S
C1030      C1033   1.428       .  S
C1031      N1038   1.157       .  T
C1032      N1037   1.156       .  T
C1033      N1035   1.151       .  T
C1034      N1036   1.154       .  T
C1039      C1040   1.431       .  A
C1039      C1044   1.459       .  A
C1040      C1041   1.408       .  A
C1040      C1045   1.404       .  S
C1041      C1042   1.416       .  A
C1041      C1048   1.448       .  S
C1042      C1043   1.446       .  A
C1043      C1044   1.485       .  A
C1043      C1046   1.441       .  S
C1044      C1047   1.438       .  S
C1045      N1052   1.137       .  T
C1046      N1051   1.156       .  T
C1047      N1049   1.154       .  T
C1048      N1050   1.157       .  T
C1053      C1054   1.385       .  A
C1053      C1058   1.447       .  A
C1054      C1055   1.425       .  A
C1054      C1059   1.455       .  S
C1055      C1056   1.474       .  A
C1055      C1062   1.426       .  S
C1056      C1057   1.423       .  A
C1057      C1058   1.434       .  A
C1057      C1060   1.433       .  S
C1058      C1061   1.456       .  S
C1059      N1066   1.156       .  T
C1060      N1065   1.154       .  T
C1061      N1063   1.158       .  T
C1062      N1064   1.152       .  T
C1067      C1068   1.443       .  A
C1067      C1072   1.486       .  A
C1068      C1069   1.448       .  A
C1068      C1073   1.446       .  S
C1069      C1070   1.449       .  A
C1069      C1076   1.429       .  S
C1070      C1071   1.452       .  A
C1071      C1072   1.500       .  A
C1071      C1074   1.448       .  S
C1072      C1075   1.441       .  S
C1073      N1080   1.155       .  T
C1074      N1079   1.157       .  T
C1075      N1077   1.158       .  T
C1076      N1078   1.155       .  T
C1081      C1082   1.401       .  A
C1082      C1083   1.379       .  A
C1082      C1087   1.458       .  S
C1083      C1090   1.425       .  S
C1084      C1651   1.412       .  A
C1084      C1085   1.413       .  A
C1085      C1086   1.420       .  A
C1085      C1088   1.448       .  S
C1086      C1649   1.414       .  A
C1086      C1089   1.444       .  S
C1087      N1094   1.156       .  T
C1088      N1093   1.157       .  T
C1089      N1091   1.157       .  T
C1090      N1092   1.143       .  T
C1095      C1100   1.416       .  A
C1096      C1663   1.427       .  A
C1096      C1097   1.387       .  A
C1096      C1101   1.444       .  S
C1097      C1098   1.381       .  A
C1097      C1104   1.442       .  S
C1098      C1667   1.395       .  A
C1099      C1100   1.394       .  A
C1099      C1102   1.422       .  S
C1100      C1103   1.433       .  S
C1101      N1108   1.155       .  T
C1102      N1107   1.149       .  T
C1103      N1105   1.153       .  T
C1104      N1106   1.156       .  T
C1109      C1678   1.427       .  A
C1109      C1114   1.400       .  A
C1110      C1111   1.395       .  A
C1110      C1115   1.449       .  S
C1111      C1112   1.396       .  A
C1111      C1118   1.445       .  S
C1113      C1680   1.384       .  A
C1113      C1114   1.385       .  A
C1113      C1116   1.452       .  S
C1114      C1117   1.401       .  S
C1115      N1122   1.158       .  T
C1116      N1121   1.156       .  T
C1117      N1119   1.137       .  T
C1118      N1120   1.156       .  T
C1123      C1692   1.414       .  A
C1123      C1128   1.422       .  A
C1124      C1125   1.428       .  A
C1124      C1129   1.443       .  S
C1125      C1126   1.415       .  A
C1125      C1132   1.447       .  S
C1127      C1694   1.391       .  A
C1127      C1128   1.392       .  A
C1127      C1130   1.451       .  S
C1128      C1131   1.445       .  S
C1129      N1136   1.158       .  T
C1130      N1135   1.156       .  T
C1131      N1133   1.156       .  T
C1132      N1134   1.157       .  T
O1137      C1140   1.271       .  A
O1137     Cd1142   2.768       .  S
C1138      O1143   1.259       .  A
C1138      C1691   1.484       .  S
O1139      C1145   1.289       .  A
C1140      O1148   1.293       .  A
C1140      C1193   1.660       .  S
C1141      O1146   1.272       .  A
C1141      C1680   1.413       .  S
Cd1142     O1148   2.701       .  S
Cd1142     O1143   2.435       .  S
Cd1142     O1144   2.282       .  S
C1145      O1149   1.255       .  A
C1145      C1190   1.618       .  S
O1150      C1153   1.291       .  A
C1151      O1156   1.268       .  A
C1151      C1663   1.445       .  S
O1152      C1158   1.259   1_565  A
O1152     Cd1155   2.673   1_556  S
C1153      O1161   1.271       .  A
C1153      C1194   1.616       .  S
C1154      O1159   1.272       .  A
C1154      C1677   1.430       .  S
Cd1155     O1162   2.632   1_564  S
Cd1155     O1160   2.332       .  S
Cd1155     O1159   2.359   1_554  S
C1158      O1162   1.296       .  A
C1158      C1196   1.616       .  S
O1163      C1166   1.270       .  A
C1164      O1169   1.266       .  A
C1164      C1666   1.491       .  S
O1165      C1171   1.268   1_565  A
O1165     Cd1168   2.752       .  S
C1166      O1174   1.295       .  A
C1166      C1192   1.653       .  S
C1167      O1172   1.266       .  A
C1167      C1649   1.469       .  S
Cd1168     O1175   2.693       .  S
Cd1168     O1173   2.278       .  S
Cd1168     O1172   2.456       .  S
C1171      O1175   1.282   1_545  A
C1171      C1195   1.647       .  S
O1176      C1179   1.251       .  A
C1177      O1186   1.268       .  A
C1177      O1182   1.286       .  A
C1177      C1189   1.589       .  S
O1178      C1184   1.282       .  A
O1178     Cd1181   2.394       .  S
C1179      C1652   1.443       .  S
C1180      O1185   1.288       .  A
C1180      O1183   1.277       .  A
C1180      C1191   1.614       .  S
Cd1181     O1187   2.407       .  S
Cd1181     O1185   2.767       .  S
Cd1181     O1183   2.804       .  S
C1184      C1694   1.472       .  S
C1189      C1607   1.674       .  S
C1189      C1621   1.632       .  S
C1189      C1635   1.753       .  S
C1190      C1582   1.658       .  S
C1190      C1593   1.649       .  S
C1190      C1638   1.737       .  S
C1191      C1554   1.655       .  S
C1191      C1565   1.752       .  S
C1191      C1624   1.634       .  S
C1192      C1526   1.636       .  S
C1192      C1537   1.629       .  S
C1192      C1568   1.764       .  S
C1193      C1495   1.605   1_655  S
C1193      C1509   1.741       .  S
C1193      C1596   1.639       .  S
C1194      C1467   1.634   1_655  S
C1194      C1481   1.594       .  S
C1194      C1512   1.705       .  S
C1195      C1442   1.621       .  S
C1195      C1453   1.710       .  S
C1195      C1540   1.608   1_545  S
C1196      C1428   1.641       .  S
C1196      C1456   1.713       .  S
C1196      C1484   1.576       .  S
C1198      O1207   1.272       .  A
C1198      O1203   1.288       .  A
C1198      C1249   1.669       .  S
O1199      C1205   1.293       .  A
O1199     Cd1202   2.661   1_655  S
C1200      O1208   1.243       .  A
C1200      C1397   1.447       .  S
C1201      O1206   1.263       .  A
C1201      C1411   1.458       .  S
Cd1202     O1209   2.739       .  S
Cd1202     O1208   2.314       .  S
Cd1202     O1206   2.433       .  S
C1205      O1209   1.262   1_655  A
C1205      C1256   1.641       .  S
O1210      C1213   1.264       .  A
O1210     Cd1215   2.322       .  S
C1211      O1220   1.278       .  A
C1211      O1216   1.278       .  A
C1211      C1253   1.616       .  S
O1212      C1218   1.286       .  A
C1213      C1400   1.466       .  S
C1214      O1219   1.265       .  A
C1214      C1383   1.481       .  S
Cd1215     O1220   2.791       .  S
Cd1215     O1216   2.641       .  S
Cd1215     O1217   2.399       .  S
C1218      O1222   1.266   1_655  A
C1218      C1255   1.642       .  S
O1223      C1226   1.274       .  A
O1223     Cd1228   2.335   1_556  S
C1224      O1233   1.256       .  A
C1224      O1229   1.292       .  A
C1224      C1254   1.628       .  S
O1225      C1231   1.276       .  A
C1226      C1369   1.483   1_556  S
C1227      O1232   1.276       .  A
Cd1228     O1233   2.729   1_554  S
Cd1228     O1229   2.654   1_554  S
Cd1228     O1230   2.354       .  S
C1231      O1235   1.280       .  A
C1231      C1251   1.583       .  S
O1236      C1239   1.280       .  A
O1236     Cd1241   2.337   1_556  S
C1237      O1246   1.269       .  A
C1237      O1242   1.280       .  A
C1237      C1252   1.607       .  S
O1238      C1244   1.267       .  A
C1239      C1414   1.469       .  S
C1240      O1245   1.252       .  A
Cd1241     O1246   2.758   1_554  S
Cd1241     O1242   2.620   1_554  S
Cd1241     O1243   2.150       .  S
C1244      O1248   1.291       .  A
C1244      C1250   1.663       .  S
C1249      C1341   1.579       .  S
C1249      C1355   1.727       .  S
C1249      C1498   1.644       .  S
C1250      C1327   1.629       .  S
C1250      C1358   1.708       .  S
C1250      C1551   1.648       .  S
C1251      C1299   1.606       .  S
C1251      C1316   1.720       .  S
C1251      C1439   1.622       .  S
C1252      C1313   1.702       .  S
C1252      C1330   1.616       .  S
C1252      C1610   1.678       .  S
C1253      C1271   1.646       .  S
C1253      C1288   1.728       .  S
C1253      C1470   1.641       .  S
C1254      C1285   1.741       .  S
C1254      C1302   1.595       .  S
C1254      C1523   1.649   1_545  S
C1255      C1257   1.702       .  S
C1255      C1274   1.593   1_655  S
C1255      C1425   1.632       .  S
C1256      C1260   1.685       .  S
C1256      C1344   1.580       .  S
C1256      C1579   1.627       .  S
C1257      C1258   1.437       .  A
C1257      C1262   1.463       .  A
C1258      C1259   1.480       .  A
C1258      C1263   1.439       .  S
C1259      C1260   1.469       .  A
C1259      C1266   1.452       .  S
C1260      C1261   1.410       .  A
C1261      C1262   1.444       .  A
C1261      C1264   1.441       .  S
C1262      C1265   1.440   1_655  S
C1263      N1270   1.155       .  T
C1264      N1269   1.157       .  T
C1265      N1267   1.158       .  T
C1266      N1268   1.158       .  T
C1271      C1272   1.421       .  A
C1271      C1276   1.463       .  A
C1272      C1273   1.427       .  A
C1272      C1277   1.434       .  S
C1273      C1274   1.432       .  A
C1273      C1280   1.449       .  S
C1274      C1275   1.413   1_455  A
C1275      C1276   1.427   1_655  A
C1275      C1278   1.450       .  S
C1276      C1279   1.457       .  S
C1277      N1284   1.157       .  T
C1278      N1283   1.159       .  T
C1279      N1281   1.158       .  T
C1280      N1282   1.152       .  T
C1285      C1286   1.449       .  A
C1285      C1290   1.470       .  A
C1286      C1287   1.496       .  A
C1286      C1291   1.444   1_545  S
C1287      C1288   1.469       .  A
C1287      C1294   1.445   1_545  S
C1288      C1289   1.436       .  A
C1289      C1290   1.479       .  A
C1289      C1292   1.445       .  S
C1290      C1293   1.432       .  S
C1291      N1298   1.157       .  T
C1292      N1297   1.157       .  T
C1293      N1295   1.152       .  T
C1294      N1296   1.158       .  T
C1299      C1300   1.459       .  A
C1299      C1304   1.395       .  A
C1300      C1301   1.423       .  A
C1300      C1305   1.463       .  S
C1301      C1302   1.421       .  A
C1301      C1308   1.444       .  S
C1302      C1303   1.442       .  A
C1303      C1304   1.377       .  A
C1303      C1306   1.451       .  S
C1304      C1307   1.434       .  S
C1305      N1312   1.159       .  T
C1306      N1311   1.157       .  T
C1307      N1309   1.153       .  T
C1308      N1310   1.156       .  T
C1313      C1314   1.430       .  A
C1313      C1318   1.462       .  A
C1314      C1315   1.466       .  A
C1314      C1319   1.442       .  S
C1315      C1316   1.453       .  A
C1315      C1322   1.431       .  S
C1316      C1317   1.448       .  A
C1317      C1318   1.487       .  A
C1317      C1320   1.443       .  S
C1318      C1321   1.441       .  S
C1319      N1326   1.157       .  T
C1320      N1325   1.157       .  T
C1321      N1323   1.156       .  T
C1322      N1324   1.152       .  T
C1327      C1328   1.427       .  A
C1327      C1332   1.400       .  A
C1328      C1329   1.455       .  A
C1328      C1333   1.437       .  S
C1329      C1330   1.463       .  A
C1329      C1336   1.443       .  S
C1330      C1331   1.388       .  A
C1331      C1332   1.398       .  A
C1331      C1334   1.429       .  S
C1332      C1335   1.422       .  S
C1333      N1340   1.151       .  T
C1334      N1339   1.152       .  T
C1335      N1337   1.150       .  T
C1336      N1338   1.158       .  T
C1341      C1342   1.413       .  A
C1341      C1346   1.421       .  A
C1342      C1343   1.421   1_455  A
C1342      C1347   1.453       .  S
C1343      C1344   1.435       .  A
C1343      C1350   1.438       .  S
C1344      C1345   1.436   1_655  A
C1345      C1346   1.409       .  A
C1345      C1348   1.456       .  S
C1346      C1349   1.441       .  S
C1347      N1354   1.159       .  T
C1348      N1353   1.157       .  T
C1349      N1351   1.152       .  T
C1350      N1352   1.152       .  T
C1355      C1356   1.431       .  A
C1355      C1360   1.476       .  A
C1356      C1357   1.483       .  A
C1356      C1361   1.446       .  S
C1357      C1358   1.455       .  A
C1357      C1364   1.432       .  S
C1358      C1359   1.427       .  A
C1359      C1360   1.482       .  A
C1359      C1362   1.442       .  S
C1360      C1363   1.444       .  S
C1361      N1368   1.157       .  T
C1362      N1367   1.156       .  T
C1363      N1365   1.157       .  T
C1364      N1366   1.153       .  T
C1369      C1370   1.420       .  A
C1369      C1374   1.419       .  A
C1371      C1378   1.446       .  S
C1372      C1373   1.394       .  A
C1373      C1374   1.397       .  A
C1373      C1376   1.444       .  S
C1374      C1377   1.449       .  S
C1375      N1382   1.156       .  T
C1376      N1381   1.152       .  T
C1377      N1379   1.154       .  T
C1378      N1380   1.156       .  T
C1383      C1384   1.407       .  A
C1384      C1385   1.422   1_556  A
C1384      C1389   1.446   1_545  S
C1385      C1386   1.420       .  A
C1385      C1392   1.437       .  S
C1387      C1388   1.379       .  A
C1387      C1390   1.455       .  S
C1388      C1391   1.428       .  S
C1389      N1396   1.157       .  T
C1390      N1395   1.155       .  T
C1391      N1393   1.147       .  T
C1392      N1394   1.153   1_545  T
C1397      C1398   1.402       .  A
C1398      C1399   1.387       .  A
C1398      C1403   1.435       .  S
C1399      C1400   1.397       .  A
C1399      C1406   1.447       .  S
C1401      C1402   1.391       .  A
C1401      C1404   1.443       .  S
C1402      C1405   1.435       .  S
C1403      N1410   1.151       .  T
C1404      N1409   1.156       .  T
C1405      N1407   1.149       .  T
C1406      N1408   1.155       .  T
C1411      C1416   1.415       .  A
C1412      C1413   1.387       .  A
C1412      C1417   1.453       .  S
C1413      C1414   1.389       .  A
C1413      C1420   1.442       .  S
C1415      C1416   1.397       .  A
C1415      C1418   1.445       .  S
C1416      C1419   1.446       .  S
C1417      N1424   1.155       .  T
C1418      N1423   1.154       .  T
C1419      N1421   1.157       .  T
C1420      N1422   1.150       .  T
C1425      C1426   1.419       .  A
C1425      C1430   1.423       .  A
C1426      C1427   1.449       .  A
C1426      C1431   1.447       .  S
C1427      C1428   1.434       .  A
C1427      C1434   1.443       .  S
C1428      C1429   1.439       .  A
C1429      C1430   1.429       .  A
C1429      C1432   1.435       .  S
C1430      C1433   1.457       .  S
C1431      N1438   1.157       .  T
C1432      N1437   1.151       .  T
C1433      N1435   1.157       .  T
C1434      N1436   1.157       .  T
C1439      C1440   1.395       .  A
C1439      C1444   1.455       .  A
C1440      C1441   1.402       .  A
C1440      C1445   1.436       .  S
C1441      C1442   1.411       .  A
C1441      C1448   1.444       .  S
C1442      C1443   1.436       .  A
C1443      C1444   1.470       .  A
C1443      C1446   1.446       .  S
C1444      C1447   1.434       .  S
C1445      N1452   1.158       .  T
C1446      N1451   1.157       .  T
C1447      N1449   1.153       .  T
C1448      N1450   1.159       .  T
C1453      C1454   1.454       .  A
C1453      C1458   1.442       .  A
C1454      C1455   1.480       .  A
C1454      C1459   1.437       .  S
C1455      C1456   1.437       .  A
C1455      C1462   1.444       .  S
C1456      C1457   1.461       .  A
C1457      C1458   1.481       .  A
C1457      C1460   1.440       .  S
C1458      C1461   1.446   1_545  S
C1459      N1466   1.154       .  T
C1460      N1465   1.154       .  T
C1461      N1463   1.158       .  T
C1462      N1464   1.156       .  T
C1467      C1468   1.411       .  A
C1467      C1472   1.448       .  A
C1468      C1469   1.395   1_565  A
C1468      C1473   1.451   1_455  S
C1469      C1470   1.399       .  A
C1469      C1476   1.440       .  S
C1470      C1471   1.466   1_545  A
C1471      C1472   1.491       .  A
C1471      C1474   1.437       .  S
C1472      C1475   1.443       .  S
C1473      N1480   1.158   1_565  T
C1474      N1479   1.156       .  T
C1475      N1477   1.157       .  T
C1476      N1478   1.155       .  T
C1481      C1482   1.406       .  A
C1481      C1486   1.422       .  A
C1482      C1483   1.412   1_565  A
C1482      C1487   1.443       .  S
C1483      C1484   1.408       .  A
C1483      C1490   1.428       .  S
C1484      C1485   1.443   1_545  A
C1485      C1486   1.432       .  A
C1485      C1488   1.448       .  S
C1486      C1489   1.435       .  S
C1487      N1494   1.158       .  T
C1488      N1493   1.156       .  T
C1489      N1491   1.152       .  T
C1490      N1492   1.154       .  T
C1495      C1496   1.411       .  A
C1495      C1500   1.428       .  A
C1496      C1497   1.430       .  A
C1496      C1501   1.460       .  S
C1497      C1498   1.437       .  A
C1497      C1504   1.424       .  S
C1498      C1499   1.429       .  A
C1499      C1500   1.447       .  A
C1499      C1502   1.447       .  S
C1500      C1503   1.445       .  S
C1501      N1508   1.158       .  T
C1502      N1507   1.157       .  T
C1503      N1505   1.157       .  T
C1504      N1506   1.148       .  T
C1509      C1510   1.471       .  A
C1509      C1514   1.443       .  A
C1510      C1511   1.492       .  A
C1510      C1515   1.442   1_655  S
C1511      C1512   1.445       .  A
C1511      C1518   1.446   1_655  S
C1512      C1513   1.431       .  A
C1513      C1514   1.470       .  A
C1513      C1516   1.437       .  S
C1514      C1517   1.422       .  S
C1515      N1522   1.157       .  T
C1516      N1521   1.157       .  T
C1517      N1519   1.150       .  T
C1518      N1520   1.157       .  T
C1523      C1524   1.438       .  A
C1523      C1528   1.409       .  A
C1524      C1525   1.438       .  A
C1524      C1529   1.437       .  S
C1525      C1526   1.436       .  A
C1525      C1532   1.456       .  S
C1526      C1527   1.439       .  A
C1527      C1528   1.442       .  A
C1527      C1530   1.439       .  S
C1528      C1531   1.448       .  S
C1529      N1536   1.151       .  T
C1530      N1535   1.156       .  T
C1531      N1533   1.157       .  T
C1532      N1534   1.158       .  T
C1537      C1538   1.441       .  A
C1537      C1542   1.448       .  A
C1538      C1539   1.421       .  A
C1538      C1543   1.435       .  S
C1539      C1540   1.409       .  A
C1539      C1546   1.431       .  S
C1540      C1541   1.418   1_565  A
C1541      C1542   1.433   1_545  A
C1541      C1544   1.444       .  S
C1542      C1545   1.441   1_565  S
C1543      N1550   1.152       .  T
C1544      N1549   1.155       .  T
C1545      N1547   1.154       .  T
C1546      N1548   1.148       .  T
C1551      C1552   1.395       .  A
C1551      C1556   1.447       .  A
C1552      C1553   1.412       .  A
C1552      C1557   1.435       .  S
C1553      C1554   1.394       .  A
C1553      C1560   1.435       .  S
C1554      C1555   1.467       .  A
C1555      C1556   1.495       .  A
C1555      C1558   1.432       .  S
C1556      C1559   1.443       .  S
C1557      N1564   1.159       .  T
C1558      N1563   1.154       .  T
C1559      N1561   1.157       .  T
C1560      N1562   1.157       .  T
C1565      C1566   1.443       .  A
C1565      C1570   1.469       .  A
C1566      C1567   1.480       .  A
C1566      C1571   1.427       .  S
C1567      C1568   1.448       .  A
C1567      C1574   1.421       .  S
C1568      C1569   1.470       .  A
C1569      C1570   1.513       .  A
C1569      C1572   1.442       .  S
C1570      C1573   1.446       .  S
C1571      N1578   1.155       .  T
C1572      N1577   1.157       .  T
C1573      N1575   1.158       .  T
C1574      N1576   1.157       .  T
C1579      C1580   1.436       .  A
C1579      C1584   1.428       .  A
C1580      C1581   1.447       .  A
C1580      C1585   1.444       .  S
C1581      C1582   1.417       .  A
C1581      C1588   1.442       .  S
C1582      C1583   1.447       .  A
C1583      C1584   1.438       .  A
C1583      C1586   1.438       .  S
C1584      C1587   1.452       .  S
C1585      N1592   1.158       .  T
C1586      N1591   1.151       .  T
C1587      N1589   1.158       .  T
C1588      N1590   1.154       .  T
C1593      C1594   1.432       .  A
C1593      C1598   1.447       .  A
C1594      C1595   1.439       .  A
C1594      C1599   1.441       .  S
C1595      C1596   1.444       .  A
C1595      C1602   1.445       .  S
C1596      C1597   1.403       .  A
C1597      C1598   1.423       .  A
C1597      C1600   1.438       .  S
C1598      C1601   1.441       .  S
C1599      N1606   1.158       .  T
C1600      N1605   1.154       .  T
C1601      N1603   1.154       .  T
C1602      N1604   1.154       .  T
C1607      C1608   1.449       .  A
C1607      C1612   1.451       .  A
C1608      C1609   1.423       .  A
C1608      C1613   1.438       .  S
C1609      C1610   1.430       .  A
C1609      C1616   1.452       .  S
C1610      C1611   1.437       .  A
C1611      C1612   1.477       .  A
C1611      C1614   1.446       .  S
C1612      C1615   1.437       .  S
C1613      N1620   1.154       .  T
C1614      N1619   1.157       .  T
C1615      N1617   1.153       .  T
C1616      N1618   1.155       .  T
C1621      C1622   1.401       .  A
C1621      C1626   1.473       .  A
C1622      C1623   1.421       .  A
C1622      C1627   1.446       .  S
C1623      C1624   1.459       .  A
C1623      C1630   1.439       .  S
C1624      C1625   1.401       .  A
C1625      C1626   1.435       .  A
C1625      C1628   1.464       .  S
C1626      C1629   1.443       .  S
C1627      N1634   1.154       .  T
C1628      N1633   1.159       .  T
C1629      N1631   1.155       .  T
C1630      N1632   1.154       .  T
C1635      C1636   1.447       .  A
C1635      C1640   1.480       .  A
C1636      C1637   1.483       .  A
C1636      C1641   1.447       .  S
C1637      C1638   1.459       .  A
C1637      C1644   1.432       .  S
C1638      C1639   1.446       .  A
C1639      C1640   1.497       .  A
C1639      C1642   1.450       .  S
C1640      C1643   1.441       .  S
C1641      N1648   1.158       .  T
C1642      N1647   1.157       .  T
C1643      N1645   1.158       .  T
C1644      N1646   1.155       .  T
C1649      C1650   1.406       .  A
C1650      C1651   1.375       .  A
C1650      C1655   1.451       .  S
C1651      C1658   1.451       .  S
C1652      C1653   1.388       .  A
C1653      C1654   1.395       .  A
C1653      C1656   1.418       .  S
C1654      C1657   1.450       .  S
C1655      N1662   1.154       .  T
C1656      N1661   1.146       .  T
C1657      N1659   1.157       .  T
C1658      N1660   1.150       .  T
C1663      C1668   1.413       .  A
C1664      C1665   1.383       .  A
C1664      C1669   1.442   1_545  S
C1665      C1666   1.390       .  A
C1665      C1672   1.443   1_545  S
C1667      C1668   1.390       .  A
C1667      C1670   1.449       .  S
C1668      C1671   1.445       .  S
C1669      N1676   1.154       .  T
C1670      N1675   1.157       .  T
C1671      N1673   1.155       .  T
C1672      N1674   1.152       .  T
C1677      C1682   1.385       .  A
C1678      C1679   1.394       .  A
C1678      C1683   1.419       .  S
C1679      C1680   1.367       .  A
C1679      C1686   1.445       .  S
C1681      C1682   1.368       .  A
C1681      C1684   1.435       .  S
C1682      C1685   1.438       .  S
C1683      N1690   1.149       .  T
C1684      N1689   1.155       .  T
C1685      N1687   1.155       .  T
C1686      N1688   1.156       .  T
C1691      C1696   1.403       .  A
C1692      C1693   1.416       .  A
C1692      C1697   1.438       .  S
C1693      C1694   1.415       .  A
C1693      C1700   1.443       .  S
C1695      C1696   1.387   1_554  A
C1695      C1698   1.442       .  S
C1696      C1699   1.447       .  S
C1697      N1704   1.155       .  T
C1698      N1703   1.154       .  T
C1699      N1701   1.156       .  T
C1700      N1702   1.156       .  T
