geometry optimzed in LAMMPS
_audit_creation_date              2020-11-30 
_audit_creation_method            'lammps2cif' 
_symmetry_space_group_name_H-M    'P1' 
_symmetry_Int_Tables_number       1 
_symmetry_cell_setting            triclinic 
loop_ 
_symmetry_equiv_pos_as_xyz 
  x,y,z 
_cell_length_a                    34.04366578 
_cell_length_b                    34.077371388238745 
_cell_length_c                    44.034299867207665 
_cell_angle_alpha                 90.10684566621612 
_cell_angle_beta                  89.29230222100922 
_cell_angle_gamma                 89.93373869406201 
loop_ 
_atom_site_label 
_atom_site_type_symbol 
_atom_site_fract_x 
_atom_site_fract_y 
_atom_site_fract_z 
_atom_site_charge 
C1          C  0.54452302  0.89404338  0.10033600     0.88300
C2          C  0.54046522  0.88995979  0.06579788    -0.52000
C3          C  0.50618534  0.90538073  0.05515584     0.11200
C4          C  0.47937211  0.92341851  0.07992949     0.22100
C5          C  0.54012401  0.93836259  0.10641009    -0.52700
C6          C  0.50591450  0.95386804  0.09562156     0.11300
C7          C  0.50755305  0.87517940  0.11390317    -0.52200
C8          C  0.47353493  0.89025167  0.10315898     0.11800
H9          H  0.56251238  0.87637532  0.05115045     0.16400
H10         H  0.45157551  0.93590607  0.07113820     0.02100
H11         H  0.56229974  0.95597169  0.11754932     0.16700
H12         H  0.50822475  0.85162629  0.13051413     0.16500
In13       In  0.69032376  0.83908508  0.19005757     1.36900
C14         C  0.69581930  0.91528109  0.19832847     0.79300
O15         O  0.67193786  0.85992322  0.14409579    -0.59100
O16         O  0.63011528  0.82840909  0.17067961    -0.50000
C17         C  0.74744548  0.78976124  0.17384444     0.72000
O18         O  0.75291073  0.82579385  0.17836160    -0.44900
C19         C  0.68108603  0.82126737  0.24846994     0.76700
O20         O  0.72030309  0.89660933  0.18203490    -0.56700
O21         O  0.65500837  0.81320849  0.22921495    -0.46800
O22         O  0.66978010  0.89475441  0.21108212    -0.53200
C23         C  0.63700441  0.84858249  0.14717272     0.86900
O24         O  0.71199969  0.77893160  0.17583931    -0.55100
O25         O  0.71204866  0.83592363  0.23734078    -0.58300
In26       In  0.31893083  0.84170492  0.18704081     1.36900
C27         C  0.30971335  0.91729831  0.19734101     0.79300
O28         O  0.29541902  0.83650767  0.23412493    -0.59100
O29         O  0.35349043  0.81585955  0.22577009    -0.50000
C30         C  0.26251564  0.79274780  0.17049944     0.72000
O31         O  0.25871221  0.82943512  0.17007184    -0.44900
C32         C  0.37498552  0.85021445  0.14512014     0.76700
O33         O  0.28503647  0.89769130  0.18251823    -0.56700
O34         O  0.37998318  0.83028478  0.16883885    -0.46800
O35         O  0.33832026  0.89806489  0.20732266    -0.53200
C36         C  0.32636807  0.82218544  0.24499840     0.86900
O37         O  0.29655869  0.78077234  0.17689710    -0.55100
O38         O  0.34043346  0.86199255  0.14119151    -0.58300
C39         C  0.45784183  0.05586185  0.10303113     0.88300
C40         C  0.46334496  0.06219174  0.06872758    -0.52000
C41         C  0.49809235  0.04762805  0.05754526     0.11200
C42         C  0.52397379  0.02802215  0.08179610     0.22100
C43         C  0.46220620  0.01128686  0.10728558    -0.52700
C44         C  0.49692414  0.99656947  0.09620991     0.11300
C45         C  0.49421035  0.07393660  0.11765840    -0.52200
C46         C  0.52880265  0.05953339  0.10657778     0.11800
H47         H  0.44169160  0.07640302  0.05454158     0.16400
H48         H  0.55213794  0.01609719  0.07267100     0.02100
H49         H  0.43967018  0.99294032  0.11761944     0.16700
H50         H  0.49271089  0.09610476  0.13541917     0.16500
In51       In  0.69521585  0.09913214  0.18086337     1.36900
C52         C  0.71044644  0.02337810  0.18300297     0.79300
O53         O  0.72806114  0.09918983  0.22434116    -0.59100
O54         O  0.67116506  0.12481968  0.22500273    -0.50000
C55         C  0.74596266  0.15166825  0.16004851     0.72000
O56         O  0.75161514  0.11530394  0.15811809    -0.44900
C57         C  0.63077358  0.09284426  0.14723645     0.76700
O58         O  0.72945163  0.04617427  0.16583044    -0.56700
O59         O  0.62963596  0.10422859  0.17447038    -0.46800
O60         O  0.68417829  0.03952654  0.19914051    -0.53200
C61         C  0.70144925  0.11571562  0.23978623     0.86900
O62         O  0.71246824  0.16153073  0.17016350    -0.55100
O63         O  0.66478943  0.08795946  0.13643194    -0.58300
In64       In  0.29786378  0.10085965  0.18646235     1.36900
C65         C  0.28521805  0.02474028  0.18786209     0.79300
O66         O  0.32446847  0.08923041  0.14021710    -0.59100
O67         O  0.36257609  0.10675192  0.17553366    -0.50000
C68         C  0.24913402  0.15698341  0.16925289     0.72000
O69         O  0.24104172  0.12105192  0.16718432    -0.44900
C70         C  0.29455918  0.11259009  0.24622969     0.76700
O71         O  0.26332073  0.04745745  0.17305866    -0.56700
O72         O  0.32448558  0.12189322  0.23051400    -0.46800
O73         O  0.31230899  0.04131007  0.20228444    -0.53200
C74         C  0.35924062  0.09461789  0.14860544     0.86900
O75         O  0.28352919  0.16437958  0.17806110    -0.55100
O76         O  0.26645366  0.09891486  0.23121722    -0.58300
C77         C  0.45879878  0.89836232  0.47596822     0.88300
C78         C  0.46101876  0.89323496  0.01213509    -0.52000
C79         C  0.49628092  0.90619278  0.02267581     0.11200
C80         C  0.52322123  0.92429778  0.99806224     0.22100
C81         C  0.46318648  0.94291860  0.47159206    -0.52700
C82         C  0.49762981  0.95687635  0.98391224     0.11300
C83         C  0.49617829  0.88035736  0.46221877    -0.52200
C84         C  0.52982609  0.89504145  0.47394044     0.11800
H85         H  0.43861458  0.88024732  0.02672855     0.16400
H86         H  0.55180265  0.93491630  0.00678842     0.02100
H87         H  0.44145414  0.96112899  0.46049947     0.16700
H88         H  0.49605513  0.85856843  0.44415229     0.16500
In89       In  0.69090715  0.86047533  0.38996282     1.36900
C90         C  0.69627178  0.93574172  0.37660892     0.79300
O91         O  0.72634708  0.85020624  0.34804361    -0.59100
O92         O  0.66658855  0.83194673  0.34752947    -0.50000
C93         C  0.74084778  0.81109678  0.41489306     0.72000
O94         O  0.74786236  0.84732315  0.41261266    -0.44900
C95         C  0.63077411  0.86715380  0.42850609     0.76700
O96         O  0.72071949  0.91916555  0.39377653    -0.56700
O97         O  0.62852487  0.84760800  0.40418516    -0.46800
O98         O  0.66999301  0.91371042  0.36620162    -0.54000
C99         C  0.69871467  0.83562029  0.33301810     0.86900
O100        O  0.70698891  0.80074163  0.40666568    -0.55100
O101        O  0.66411781  0.88128798  0.43389732    -0.58300
In102      In  0.31031781  0.84625140  0.38796363     1.36900
C103        C  0.30376673  0.92223548  0.37856488     0.79300
O104        O  0.33065107  0.86463887  0.43372005    -0.59100
O105        O  0.37264632  0.83934894  0.40294847    -0.50000
C106        C  0.26622624  0.78796502  0.40797013     0.72000
O107        O  0.25480459  0.82333636  0.40883328    -0.44900
C108        C  0.30503707  0.82870526  0.32985113     0.76700
O109        O  0.27881472  0.90404378  0.39486373    -0.56700
O110        O  0.33687427  0.82387730  0.34405560    -0.46800
O111        O  0.33046468  0.90132823  0.36685852    -0.53200
C112        C  0.36602484  0.85613047  0.42815315     0.86900
O113        O  0.30117588  0.78292137  0.39887908    -0.55100
O114        O  0.27639057  0.84083892  0.34571251    -0.58300
C115        C  0.54486466  0.05957361  0.47652943     0.88300
C116        C  0.54382840  0.06216556  0.01407201    -0.52000
C117        C  0.50858601  0.04833028  0.02480370     0.11200
C118        C  0.48206669  0.03091462  0.99995445     0.22100
C119        C  0.54090725  0.01496489  0.47210375    -0.52700
C120        C  0.50814236  0.99916208  0.98466080     0.11300
C121        C  0.50811824  0.07732041  0.46237335    -0.52200
C122        C  0.47395356  0.06258031  0.47367400     0.11800
H123        H  0.56596521  0.07485241  0.02866944     0.16400
H124        H  0.45348267  0.01963022  0.00868282     0.02100
H125        H  0.56327515  0.99680957  0.46124692     0.16700
H126        H  0.50904907  0.09925542  0.44447661     0.16500
In127      In  0.31716977  0.10643421  0.39014411     1.36900
C128        C  0.29356125  0.03231936  0.38969072     0.79300
O129        O  0.28970240  0.10848335  0.34421737    -0.59100
O130        O  0.34979872  0.12448601  0.34747088    -0.50000
C131        C  0.27690663  0.16981597  0.40693126     0.72000
O132        O  0.26341482  0.13549972  0.40934017    -0.44900
C133        C  0.37630804  0.09528818  0.42811778     0.76700
O134        O  0.27505753  0.05835158  0.40444091    -0.56700
O135        O  0.38162090  0.10401258  0.40059729    -0.46800
O136        O  0.32290131  0.04469387  0.37485496    -0.53200
C137        C  0.32063844  0.11920282  0.33050143     0.86900
O138        O  0.31192006  0.17165267  0.39744991    -0.55100
O139        O  0.34098786  0.09464997  0.43679061    -0.58300
In140      In  0.68970134  0.11997477  0.38404531     1.36900
C141        C  0.71173556  0.04567993  0.38187761     0.79300
O142        O  0.67159680  0.10357625  0.43157264    -0.59100
O143        O  0.62672867  0.11764123  0.40027753    -0.50000
C144        C  0.73094137  0.18278845  0.39960196     0.72000
O145        O  0.74543887  0.14876756  0.39807093    -0.44900
C146        C  0.68181183  0.13176876  0.32471072     0.76700
O147        O  0.73156966  0.07117166  0.39576764    -0.56700
O148        O  0.65383241  0.13752918  0.34333034    -0.46800
O149        O  0.68233940  0.05882863  0.36803767    -0.53200
C150        C  0.63542704  0.10522915  0.42632580     0.86900
O151        O  0.69466243  0.18461192  0.39433208    -0.55100
O152        O  0.71383858  0.12204018  0.33672850    -0.58300
C153        C  0.92396603  0.43047678  0.09965109     0.88300
C154        C  0.91717270  0.43677457  0.06566725    -0.52000
C155        C  0.93122324  0.47194770  0.05533188     0.11200
C156        C  0.95085924  0.49723958  0.07989444     0.22100
C157        C  0.96849235  0.43499361  0.10345411    -0.52700
C158        C  0.98268462  0.47001496  0.09309369     0.11300
C159        C  0.90560161  0.46612465  0.11549808    -0.52200
C160        C  0.91950541  0.50100608  0.10512593     0.11800
H161        H  0.90329177  0.41529817  0.05104649     0.16400
H162        H  0.96240572  0.52571537  0.07139009     0.02100
H163        H  0.98714574  0.41248160  0.11313816     0.16700
H164        H  0.88352881  0.46396847  0.13347177     0.16500
In165      In  0.86847243  0.65188736  0.19328318     1.36900
C166        C  0.94383479  0.66509131  0.20393502     0.79300
O167        O  0.85536065  0.67809800  0.23860817    -0.59100
O168        O  0.84484612  0.61696320  0.23298523    -0.50000
C169        C  0.81051764  0.69758789  0.17442343     0.72000
O170        O  0.84510015  0.71006586  0.17801593    -0.44900
C171        C  0.88154687  0.59630326  0.15229795     0.76700
O172        O  0.92465701  0.68666489  0.18605445    -0.56700
O173        O  0.86475811  0.58944791  0.17742359    -0.46800
O174        O  0.92415564  0.63849212  0.21668428    -0.53200
C175        C  0.84473592  0.64620116  0.25070326     0.86900
O176        O  0.80636131  0.66116842  0.17826066    -0.55100
O177        O  0.88910406  0.63184961  0.14716432    -0.58300
In178      In  0.87470409  0.27840665  0.18679302     1.36900
C179        C  0.95042176  0.26185050  0.19039944     0.79300
O180        O  0.89146613  0.29955902  0.14032167    -0.59100
O181        O  0.87132252  0.34155594  0.17292174    -0.50000
C182        C  0.81177427  0.23979972  0.16869308     0.72000
O183        O  0.84590646  0.22517285  0.16727164    -0.44900
C184        C  0.86035700  0.27808412  0.24611563     0.76700
O185        O  0.92715744  0.23939022  0.17646422    -0.56700
O186        O  0.85784767  0.30916736  0.23056809    -0.46800
O187        O  0.93441907  0.29120272  0.20289039    -0.53200
C188        C  0.88530610  0.33507418  0.14669366     0.86900
O189        O  0.81024290  0.27482693  0.17785548    -0.55100
O190        O  0.86874190  0.24759446  0.23110950    -0.58300
C191        C  0.08381960  0.51893067  0.09963462     0.88300
C192        C  0.09042480  0.51442672  0.06521542    -0.52000
C193        C  0.07619698  0.47982566  0.05389866     0.11200
C194        C  0.05690079  0.45315430  0.07817223     0.22100
C195        C  0.03929432  0.51410536  0.10416942    -0.52700
C196        C  0.02509485  0.47965159  0.09288794     0.11300
C197        C  0.10220178  0.48249609  0.11386454    -0.52200
C198        C  0.08827793  0.44810015  0.10277457     0.11800
H199        H  0.10404209  0.53676294  0.05103906     0.16400
H200        H  0.04527765  0.42511682  0.06903354     0.02100
H201        H  0.02062657  0.53606178  0.11498129     0.16700
H202        H  0.12391154  0.48379818  0.13174560     0.16500
In203      In  0.13384558  0.29903559  0.19378006     1.36900
C204        C  0.05816098  0.28523385  0.20262998     0.79300
O205        O  0.14050431  0.27385514  0.24006441    -0.59100
O206        O  0.15523859  0.33399450  0.23406375    -0.50000
C207        C  0.19228165  0.25236012  0.17615528     0.72000
O208        O  0.15692114  0.24125604  0.17711498    -0.44900
C209        C  0.12307469  0.35330968  0.15133468     0.76700
O210        O  0.07958600  0.26171876  0.18755631    -0.56700
O211        O  0.13887286  0.36094731  0.17643115    -0.46800
O212        O  0.07575086  0.31437244  0.21354570    -0.53200
C213        C  0.15155105  0.30548035  0.25220735     0.86900
O214        O  0.19748314  0.28806190  0.18246386    -0.55100
O215        O  0.11547291  0.31762241  0.14699611    -0.58300
In216      In  0.12913764  0.66574362  0.19378613     1.36900
C217        C  0.05346026  0.68411727  0.19431451     0.79300
O218        O  0.11717835  0.64698598  0.14585437    -0.59100
O219        O  0.13087153  0.60277736  0.17806737    -0.50000
C220        C  0.19337810  0.70582978  0.17878584     0.72000
O221        O  0.15949067  0.72099346  0.17884803    -0.44900
C222        C  0.13919146  0.66062638  0.25364683     0.76700
O223        O  0.07856426  0.70523430  0.18069041    -0.56700
O224        O  0.14459172  0.63172032  0.23602987    -0.46800
O225        O  0.06756792  0.65520186  0.20830321    -0.53200
C226        C  0.12061013  0.61094894  0.15135214     0.86900
O227        O  0.19417757  0.66988136  0.18539118    -0.55100
O228        O  0.12984999  0.69211156  0.24046667    -0.58300
C229        C  0.91763528  0.52437740  0.47825619     0.88300
C230        C  0.91731390  0.51788450  0.01245151    -0.52000
C231        C  0.93116816  0.48275053  0.02294447     0.11200
C232        C  0.94949089  0.45624713  0.99819939     0.22100
C233        C  0.96224878  0.52063158  0.47316143    -0.52700
C234        C  0.98143141  0.48229592  0.98342332     0.11300
C235        C  0.89993977  0.48723579  0.46461261    -0.52200
C236        C  0.91495199  0.45348316  0.47596819     0.11800
H237        H  0.90398732  0.53997002  0.02711674     0.16400
H238        H  0.96072571  0.42779161  0.00683170     0.02100
H239        H  0.98008393  0.54295621  0.46209414     0.16700
H240        H  0.87746258  0.48759163  0.44728227     0.16500
In241      In  0.87289630  0.30093259  0.38886419     1.36900
C242        C  0.94890171  0.29224928  0.37985934     0.79300
O243        O  0.86777409  0.27475462  0.34277931    -0.59100
O244        O  0.85114619  0.33454316  0.34805450    -0.50000
C245        C  0.82121204  0.24715466  0.40610229     0.72000
O246        O  0.85773438  0.24138237  0.40618660    -0.44900
C247        C  0.87985371  0.35593265  0.43122718     0.76700
O248        O  0.92886365  0.26734058  0.39452939    -0.56700
O249        O  0.86010622  0.36128132  0.40751563    -0.46800
O250        O  0.92985082  0.32069788  0.36933418    -0.53200
C251        C  0.85604875  0.30577865  0.33021995     0.86900
O252        O  0.81093227  0.28168632  0.39944266    -0.55100
O253        O  0.89272301  0.32165898  0.43462802    -0.58300
In254      In  0.85742958  0.67334611  0.39261562     1.36900
C255        C  0.93272131  0.68623159  0.38338161     0.79300
O256        O  0.87920016  0.65232725  0.43730271    -0.59100
O257        O  0.85282754  0.61054538  0.40780329    -0.50000
C258        C  0.79949227  0.71776987  0.41351598     0.72000
O259        O  0.83450241  0.72979880  0.41145458    -0.44900
C260        C  0.83958206  0.67379133  0.33431737     0.76700
O261        O  0.91268833  0.70735765  0.40147325    -0.56700
O262        O  0.83772153  0.64263180  0.34993519    -0.46800
O263        O  0.91382615  0.66032583  0.36941434    -0.53200
C264        C  0.87118578  0.61696360  0.43208827     0.86900
O265        O  0.79462673  0.68206248  0.40689579    -0.55100
O266        O  0.84816459  0.70433966  0.34899260    -0.58300
C267        C  0.08120311  0.44174919  0.47706551     0.88300
C268        C  0.08920553  0.43621202  0.00901856    -0.52000
C269        C  0.07539082  0.47074716  0.02097192     0.11200
C270        C  0.05577220  0.49780314  0.99745377     0.22100
C271        C  0.03651956  0.44485784  0.47270244    -0.52700
C272        C  0.02373825  0.47188976  0.98311626     0.11300
C273        C  0.09832451  0.47939507  0.46330740    -0.52200
C274        C  0.08248932  0.51291236  0.47502817     0.11800
H275        H  0.10314818  0.41372864  0.02263352     0.16400
H276        H  0.04436666  0.52577925  0.00713853     0.02100
H277        H  0.01911313  0.42243929  0.46161501     0.16700
H278        H  0.12057551  0.47950018  0.44538939     0.16500
In279      In  0.11638890  0.68093334  0.39859593     1.36900
C280        C  0.04074366  0.69847430  0.39923463     0.79300
O281        O  0.11592595  0.71303598  0.35429318    -0.59100
O282        O  0.13776012  0.65465621  0.35387141    -0.50000
C283        C  0.17221903  0.72982781  0.41645306     0.72000
O284        O  0.13620861  0.73759897  0.41875140    -0.44900
C285        C  0.11074581  0.61630077  0.43297580     0.76700
O286        O  0.06431497  0.71443730  0.41728260    -0.56700
O287        O  0.12052760  0.61520464  0.40530461    -0.46800
O288        O  0.05607958  0.67410664  0.38108547    -0.53200
C289        C  0.12945631  0.68498020  0.33870579     0.86900
O290        O  0.17995614  0.69559744  0.40706760    -0.55100
O291        O  0.10667985  0.65032647  0.44366059    -0.58300
In292      In  0.13217851  0.28287613  0.39603380     1.36900
C293        C  0.05620012  0.26933848  0.39212592     0.79300
O294        O  0.11448335  0.31007988  0.44063291    -0.59100
O295        O  0.14161397  0.34676286  0.40761278    -0.50000
C296        C  0.18618781  0.23313173  0.41537115     0.72000
O297        O  0.14993041  0.22636920  0.41725436    -0.44900
C298        C  0.14750106  0.28045005  0.33670345     0.76700
O299        O  0.07811032  0.24821434  0.40820091    -0.56700
O300        O  0.15237803  0.31142457  0.35206355    -0.46800
O301        O  0.07350235  0.29617694  0.37758752    -0.53200
C302        C  0.12417544  0.34426186  0.43297255     0.86900
O303        O  0.19506350  0.26697189  0.40585209    -0.55100
O304        O  0.13643503  0.25112413  0.35188548    -0.58300
C305        C  0.11287497  0.37804355  0.45069366    -0.11500
C306        C  0.09908081  0.40623309  0.46368388    -0.13100
C307        C  0.10259995  0.58136283  0.45051287    -0.11500
C308        C  0.09342362  0.55116002  0.46322300    -0.13100
C309        C  0.97527548  0.68893948  0.37950869    -0.14700
C310        C  0.99833307  0.70622393  0.39995276    -0.29800
H311        H  0.98829209  0.67157765  0.36124218     0.14400
H312        H  0.98576331  0.72302509  0.41868802     0.14900
C313        C  0.99150455  0.29008100  0.37610240    -0.14700
C314        C  0.01346170  0.26452235  0.39152174    -0.29800
H315        H  0.00540277  0.31273826  0.36236196     0.14400
H316        H  0.99985793  0.24229838  0.40583047     0.14900
C317        C  0.90000661  0.55966475  0.46512286    -0.11500
C318        C  0.88496317  0.58611690  0.45132491    -0.13100
C319        C  0.90185622  0.41588203  0.46486642    -0.11500
C320        C  0.89009903  0.38738062  0.45143718    -0.13100
C321        C  0.13329372  0.68801752  0.30531586    -0.14700
C322        C  0.14197937  0.65739766  0.28711127    -0.29800
H323        H  0.12587218  0.71612629  0.29525791     0.14400
H324        H  0.14876150  0.62898406  0.29689721     0.14900
C325        C  0.15720505  0.30915498  0.28532592    -0.14700
C326        C  0.15185713  0.27789293  0.30345005    -0.29800
H327        H  0.16216175  0.33803980  0.29501296     0.14400
H328        H  0.14656062  0.24927591  0.29336450     0.14900
C329        C  0.09937666  0.55494955  0.11344958    -0.11500
C330        C  0.11095511  0.58133679  0.12935136    -0.13100
C331        C  0.10083750  0.41110595  0.11546243    -0.11500
C332        C  0.11214127  0.38347150  0.13016447    -0.13100
C333        C  0.85621484  0.27661497  0.27941518    -0.14700
C334        C  0.85090963  0.30848828  0.29701803    -0.29800
H335        H  0.86103022  0.24822170  0.28995423     0.14400
H336        H  0.84601769  0.33708063  0.28686891     0.14900
C337        C  0.99334890  0.25610020  0.19089053    -0.14700
C338        C  0.01552649  0.28139996  0.20656144    -0.29800
H339        H  0.00679258  0.23394184  0.17635321     0.14400
H340        H  0.00143732  0.30353677  0.22079106     0.14900
C341        C  0.83556129  0.67521191  0.30111341    -0.14700
C342        C  0.83573339  0.64302479  0.28348888    -0.29800
H343        H  0.83797749  0.70398736  0.29064472     0.14400
H344        H  0.83369720  0.61403200  0.29359644     0.14900
C345        C  0.98625864  0.66804890  0.20910498    -0.14700
C346        C  0.01069541  0.69090791  0.19283513    -0.29800
H347        H  0.99832934  0.64724432  0.22519461     0.14400
H348        H  0.99931925  0.71186279  0.17659317     0.14900
C349        C  0.89602591  0.36611193  0.12631295    -0.11500
C350        C  0.90826668  0.39372711  0.11202785    -0.13100
C351        C  0.90575285  0.53755866  0.11787267    -0.11500
C352        C  0.89353132  0.56547462  0.13195703    -0.13100
C353        C  0.79350743  0.21460698  0.41078258    -0.14700
C354        C  0.75506293  0.21795049  0.40494313    -0.29800
H355        H  0.80607116  0.18581418  0.41497672     0.14400
H356        H  0.74222262  0.24655441  0.40055536     0.14900
C357        C  0.21505559  0.20198782  0.42112232    -0.14700
C358        C  0.25273001  0.20511629  0.41221401    -0.29800
H359        H  0.20360242  0.17365509  0.42824273     0.14400
H360        H  0.26431079  0.23320024  0.40466739     0.14900
C361        C  0.60639850  0.09124757  0.44766519    -0.11500
C362        C  0.58055253  0.07664459  0.46287582    -0.13100
C363        C  0.43668677  0.07441145  0.46144507    -0.11500
C364        C  0.40816141  0.08492313  0.44764561    -0.13100
C365        C  0.23996553  0.75455907  0.41423678    -0.14700
C366        C  0.20208744  0.76018906  0.42163829    -0.29800
H367        H  0.25047156  0.72535355  0.40838721     0.14400
H368        H  0.19164732  0.78951741  0.42719503     0.14900
C369        C  0.30422058  0.96478764  0.37388704    -0.14700
C370        C  0.28331902  0.99032906  0.39071196    -0.29800
H371        H  0.32624849  0.97565213  0.35792778     0.14400
H372        H  0.26147307  0.98013218  0.40704926     0.14900
C373        C  0.77161821  0.78291015  0.42317610    -0.14700
C374        C  0.76615268  0.74414799  0.41988147    -0.29800
H375        H  0.80104402  0.79439840  0.42640738     0.14400
H376        H  0.73680381  0.73262723  0.41635299     0.14900
C377        C  0.69624734  0.97781956  0.36989755    -0.14700
C378        C  0.72030128  0.00343554  0.38338118    -0.29800
H379        H  0.67285685  0.98842037  0.35545694     0.14400
H380        H  0.74355530  0.99327040  0.39810596     0.14900
C381        C  0.42351544  0.88158698  0.46233812    -0.11500
C382        C  0.39684499  0.86787675  0.44806832    -0.13100
C383        C  0.56773337  0.88390413  0.46161319    -0.11500
C384        C  0.59725822  0.87486150  0.44781363    -0.13100
C385        C  0.21902378  0.18723273  0.16434855    -0.14700
C386        C  0.22533016  0.22520337  0.17064783    -0.29800
H387        H  0.18946296  0.17718998  0.15950028     0.14400
H388        H  0.25479038  0.23544809  0.17557007     0.14900
C389        C  0.29208306  0.11537408  0.27962671    -0.14700
C390        C  0.32305138  0.12360504  0.29712856    -0.29800
H391        H  0.26427400  0.10725961  0.29023919     0.14400
H392        H  0.35117825  0.13106931  0.28676718     0.14900
C393        C  0.77807778  0.17943948  0.15393603    -0.14700
C394        C  0.77595508  0.21698550  0.16282845    -0.29800
H395        H  0.80623185  0.16711386  0.14693804     0.14400
H396        H  0.74799444  0.22941521  0.17016129     0.14900
C397        C  0.70614127  0.12200081  0.27266709    -0.14700
C398        C  0.67698540  0.13379117  0.29141005    -0.29800
H399        H  0.73421609  0.11342244  0.28211363     0.14400
H400        H  0.64846077  0.14154609  0.28239064     0.14900
C401        C  0.42113806  0.07214723  0.11603345    -0.11500
C402        C  0.39263261  0.08451656  0.12968910    -0.13100
C403        C  0.56614426  0.07263342  0.11826791    -0.11500
C404        C  0.59591134  0.08345962  0.13044005    -0.13100
C405        C  0.22840749  0.76681980  0.16649758    -0.14700
C406        C  0.22963571  0.72855430  0.17343427    -0.29800
H407        H  0.20035501  0.78067172  0.16184348     0.14400
H408        H  0.25752889  0.71461162  0.17843505     0.14900
C409        C  0.33106555  0.81610748  0.27791439    -0.14700
C410        C  0.30084358  0.82342304  0.29694134    -0.29800
H411        H  0.36005075  0.80961123  0.28665323     0.14400
H412        H  0.27207593  0.82997163  0.28775918     0.14900
C413        C  0.30702850  0.95961897  0.20192270    -0.14700
C414        C  0.28097356  0.98197956  0.18735261    -0.29800
H415        H  0.32961216  0.97308816  0.21570837     0.14400
H416        H  0.25872040  0.96886672  0.17307609     0.14900
C417        C  0.78085452  0.76281561  0.16901863    -0.14700
C418        C  0.77670891  0.72367421  0.16892203    -0.29800
H419        H  0.81010474  0.77552093  0.16954787     0.14400
H420        H  0.74753640  0.71077880  0.16893312     0.14900
C421        C  0.67508278  0.81725587  0.28164896    -0.14700
C422        C  0.70434294  0.82661366  0.30053698    -0.29800
H423        H  0.64577437  0.81127641  0.29048678     0.14400
H424        H  0.73342071  0.83260060  0.29118107     0.14900
C425        C  0.69563531  0.95790789  0.20142496    -0.14700
C426        C  0.71741961  0.98099772  0.18340991    -0.29800
H427        H  0.67414602  0.97065486  0.21702891     0.14400
H428        H  0.73845769  0.96848315  0.16734797     0.14900
C429        C  0.43597894  0.87535543  0.11339272    -0.11500
C430        C  0.40706602  0.86210196  0.12573703    -0.13100
C431        C  0.60668053  0.86129938  0.12691074    -0.11500
C432        C  0.58018442  0.87617238  0.11295441    -0.13100
C433        C  0.54092420  0.89809205  0.60072423     0.88300
C434        C  0.53721575  0.89171611  0.56649807    -0.52000
C435        C  0.50326604  0.90660298  0.55504780     0.11200
C436        C  0.47613163  0.92631043  0.57904727     0.22100
C437        C  0.53684740  0.94265232  0.60509164    -0.52700
C438        C  0.50281284  0.95752613  0.59366604     0.11300
C439        C  0.50392912  0.88034403  0.61505230    -0.52200
C440        C  0.46997367  0.89503552  0.60391430     0.11800
H441        H  0.55964015  0.87763838  0.55248073     0.16400
H442        H  0.44850462  0.93845784  0.56969895     0.02100
H443        H  0.55894187  0.96080707  0.61581632     0.16700
H444        H  0.50454256  0.85868637  0.63314625     0.16500
In445      In  0.68823605  0.84604728  0.68896655     1.36900
C446        C  0.69434756  0.92189450  0.69924286     0.79300
O447        O  0.66849890  0.86614591  0.64375535    -0.59100
O448        O  0.62635875  0.83899198  0.67344239    -0.50000
C449        C  0.73055039  0.78835844  0.66604121     0.72000
O450        O  0.74312541  0.82329543  0.66723921    -0.44900
C451        C  0.69422023  0.82622036  0.74662365     0.76700
O452        O  0.71973618  0.90388482  0.68313729    -0.56700
O453        O  0.66189127  0.82330511  0.73278775    -0.46800
O454        O  0.66752962  0.90082062  0.71048448    -0.53200
C455        C  0.63327314  0.85659916  0.64866079     0.86900
O456        O  0.69547748  0.78359292  0.67488568    -0.55100
O457        O  0.72301732  0.83737105  0.73054805    -0.58300
In458      In  0.31995682  0.85249403  0.69734903     1.36900
C459        C  0.30633519  0.92813870  0.70555997     0.79300
O460        O  0.29210356  0.84599336  0.74305230    -0.59100
O461        O  0.35294312  0.83227070  0.73877624    -0.50000
C462        C  0.27595455  0.79207313  0.68064277     0.72000
O463        O  0.26295864  0.82682585  0.68174372    -0.44900
C464        C  0.37470600  0.86326352  0.65453795     0.76700
O465        O  0.28347951  0.90715974  0.68992279    -0.56700
O466        O  0.38236758  0.84840952  0.68005515    -0.46800
O467        O  0.33471107  0.91015248  0.71717591    -0.53200
C468        C  0.32323089  0.83571843  0.75614905     0.86900
O469        O  0.31204931  0.78870317  0.68620891    -0.55100
O470        O  0.33889060  0.87028300  0.65018142    -0.58300
C471        C  0.45540004  0.05951113  0.60037118     0.88300
C472        C  0.46089696  0.06590051  0.56613036    -0.52000
C473        C  0.49552293  0.05104874  0.55500446     0.11200
C474        C  0.52122906  0.03117056  0.57919078     0.22100
C475        C  0.45926910  0.01496778  0.60462698    -0.52700
C476        C  0.49381886  0.00003936  0.59353377     0.11300
C477        C  0.49181795  0.07722296  0.61505521    -0.52200
C478        C  0.52624319  0.06250387  0.60403193     0.11800
H479        H  0.43926859  0.08011265  0.55192046     0.16400
H480        H  0.54929335  0.01897553  0.57009408     0.02100
H481        H  0.43669076  0.99684387  0.61515179     0.16700
H482        H  0.49047708  0.09917100  0.63299149     0.16500
In483      In  0.68175049  0.10646269  0.68902637     1.36900
C484        C  0.70496656  0.03213815  0.68917234     0.79300
O485        O  0.70877761  0.10988589  0.73506138    -0.59100
O486        O  0.64781265  0.12207267  0.73190094    -0.50000
C487        C  0.72208050  0.17010486  0.67288949     0.72000
O488        O  0.73645266  0.13599773  0.67185822    -0.44900
C489        C  0.62341211  0.09565218  0.65020607     0.76700
O490        O  0.72383353  0.05815341  0.67479396    -0.56700
O491        O  0.61761801  0.10658276  0.67724521    -0.46800
O492        O  0.67546702  0.04462263  0.70383416    -0.53200
C493        C  0.67724873  0.11859876  0.74885743     0.86900
O494        O  0.68632030  0.17149196  0.68055298    -0.55100
O495        O  0.65894582  0.09267933  0.64235043    -0.58300
In496      In  0.30363083  0.11154634  0.68891102     1.36900
C497        C  0.28543595  0.03624433  0.69258801     0.79300
O498        O  0.32519656  0.09542937  0.64227565    -0.59100
O499        O  0.36723877  0.11320757  0.67498072    -0.50000
C500        C  0.26497323  0.17483228  0.67147959     0.72000
O501        O  0.25051851  0.14073631  0.67011159    -0.44900
C502        C  0.30291682  0.12550271  0.74820387     0.76700
O503        O  0.26413370  0.06004089  0.67815051    -0.56700
O504        O  0.33408174  0.12822037  0.73237296    -0.46800
O505        O  0.31448259  0.05152533  0.70556140    -0.53200
C506        C  0.36081003  0.10012378  0.64866348     0.86900
O507        O  0.30017123  0.17623980  0.67995970    -0.55100
O508        O  0.27253680  0.11698721  0.73350000    -0.58300
C509        C  0.45613300  0.89944765  0.97794608     0.88300
C510        C  0.46170156  0.89222961  0.51029560    -0.52000
C511        C  0.49541302  0.90701078  0.52220024     0.11200
C512        C  0.52311242  0.92647036  0.49859266     0.22100
C513        C  0.46245010  0.94369122  0.97330758    -0.52700
C514        C  0.49707221  0.95767419  0.48342829     0.11300
C515        C  0.49169052  0.87942658  0.96295413    -0.52200
C516        C  0.52678723  0.89216655  0.97356212     0.11800
H517        H  0.43908121  0.87807625  0.52399828     0.16400
H518        H  0.55054448  0.93853595  0.50832773     0.02100
H519        H  0.44075474  0.96297903  0.96328897     0.16700
H520        H  0.48930056  0.85684388  0.94560789     0.16500
In521      In  0.68181215  0.84147948  0.88941514     1.36900
C522        C  0.69144031  0.91718800  0.87916800     0.79300
O523        O  0.70487656  0.83517361  0.84216270    -0.59100
O524        O  0.64675486  0.81528069  0.85103589    -0.50000
C525        C  0.73883959  0.79278098  0.90582890     0.72000
O526        O  0.74279710  0.82942477  0.90517771    -0.44900
C527        C  0.62479449  0.85039028  0.93080728     0.76700
O528        O  0.71472455  0.89784379  0.89545117    -0.56700
O529        O  0.62062650  0.82950430  0.90743319    -0.46800
O530        O  0.66405499  0.89761746  0.86767044    -0.54000
C531        C  0.67372407  0.82092403  0.83158842     0.86900
O532        O  0.70446038  0.78082821  0.90062048    -0.55100
O533        O  0.65902987  0.86300215  0.93473156    -0.58300
In534      In  0.29495651  0.85743496  0.89936204     1.36900
C535        C  0.28396811  0.93406061  0.89615102     0.79300
O536        O  0.32186108  0.87365521  0.94389540    -0.59100
O537        O  0.35837760  0.84647791  0.91046369    -0.50000
C538        C  0.24531177  0.80381311  0.92022722     0.72000
O539        O  0.23726771  0.83984672  0.91963173    -0.44900
C540        C  0.29413451  0.84162386  0.84015049     0.76700
O541        O  0.26149802  0.91244577  0.91176679    -0.56700
O542        O  0.32440785  0.83621144  0.85592775    -0.46800
O543        O  0.31051556  0.91612054  0.88153500    -0.53200
C544        C  0.35590961  0.86321770  0.93597520     0.86900
O545        O  0.27988159  0.79520354  0.91187708    -0.55100
O546        O  0.26445867  0.85347592  0.85487437    -0.58300
C547        C  0.54909325  0.05724656  0.97959369     0.88300
C548        C  0.53997550  0.06581878  0.51089334    -0.52000
C549        C  0.50555520  0.05091146  0.52229410     0.11200
C550        C  0.47941931  0.03123248  0.49829346     0.22100
C551        C  0.54329286  0.01310561  0.97396286    -0.52700
C552        C  0.50646573  0.00010439  0.48352073     0.11300
C553        C  0.51346816  0.07730693  0.96555793    -0.52200
C554        C  0.47841220  0.06375399  0.97614008     0.11800
H555        H  0.56174626  0.08010738  0.52493448     0.16400
H556        H  0.45149623  0.01908604  0.50761029     0.02100
H557        H  0.56518224  0.99446864  0.96301025     0.16700
H558        H  0.51578260  0.10015947  0.94843120     0.16500
In559      In  0.32637026  0.11597704  0.89111037     1.36900
C560        C  0.31229348  0.04051714  0.88388846     0.79300
O561        O  0.29976128  0.11954936  0.84525992    -0.59100
O562        O  0.35930570  0.13734570  0.84934398    -0.50000
C563        C  0.27755459  0.17318610  0.90775953     0.72000
O564        O  0.26816457  0.13740523  0.90840285    -0.44900
C565        C  0.38286048  0.10472379  0.93143447     0.76700
O566        O  0.28979899  0.06204303  0.89979750    -0.56700
O567        O  0.38917694  0.12136219  0.90626880    -0.46800
O568        O  0.34090955  0.05782200  0.87153997    -0.53200
C569        C  0.33051685  0.13155542  0.83201793     0.86900
O570        O  0.31313194  0.17961653  0.90113980    -0.55100
O571        O  0.34734791  0.09732996  0.93719467    -0.58300
In572      In  0.70455517  0.10111800  0.89240999     1.36900
C573        C  0.71633508  0.02470128  0.88939332     0.79300
O574        O  0.68105989  0.08653612  0.93882359    -0.59100
O575        O  0.64125970  0.10965227  0.90656185    -0.50000
C576        C  0.75285954  0.15695112  0.91074351     0.72000
O577        O  0.76223247  0.12120165  0.91006915    -0.44900
C578        C  0.70525005  0.11461244  0.83285799     0.76700
O579        O  0.73929059  0.04698947  0.90363131    -0.56700
O580        O  0.67482983  0.12038542  0.84905977    -0.46800
O581        O  0.68856078  0.04181377  0.87615011    -0.53200
C582        C  0.64610897  0.09488314  0.93252934     0.86900
O583        O  0.71773472  0.16417266  0.90366120    -0.55100
O584        O  0.73501280  0.10377987  0.84733143    -0.58300
C585        C  0.91589955  0.44146163  0.60330483     0.88300
C586        C  0.91089432  0.44468772  0.56884008    -0.52000
C587        C  0.92701929  0.47800095  0.55685964     0.11200
C588        C  0.94660854  0.50494264  0.58039677     0.22100
C589        C  0.96059648  0.44461980  0.60801163    -0.52700
C590        C  0.97674215  0.47805534  0.59598223     0.11300
C591        C  0.89856021  0.47938054  0.61652153    -0.52200
C592        C  0.91447635  0.51255216  0.60454337     0.11800
H593        H  0.89625699  0.42269249  0.55515067     0.16400
H594        H  0.95965362  0.53201479  0.57051599     0.02100
H595        H  0.97788189  0.42237687  0.61939125     0.16700
H596        H  0.87573429  0.47994482  0.63400318     0.16500
In597      In  0.87512126  0.67880100  0.67971522     1.36900
C598        C  0.95050699  0.69482401  0.68467057     0.79300
O599        O  0.86557362  0.71056768  0.72359001    -0.59100
O600        O  0.85583280  0.64907747  0.72354945    -0.50000
C601        C  0.82281358  0.72890243  0.65846340     0.72000
O602        O  0.85886193  0.73647196  0.65972074    -0.44900
C603        C  0.88264558  0.61624346  0.64377095     0.76700
O604        O  0.92878560  0.71309921  0.66656046    -0.56700
O605        O  0.86263996  0.61555932  0.66804312    -0.46800
O606        O  0.93344157  0.66894857  0.70041161    -0.53200
C607        C  0.85694873  0.68050046  0.73879539     0.86900
O608        O  0.81358931  0.69427468  0.66582066    -0.55100
O609        O  0.89615229  0.64933391  0.63670207    -0.58300
In610      In  0.86125233  0.28916251  0.68879105     1.36900
C611        C  0.93721914  0.28542092  0.69844025     0.79300
O612        O  0.88119930  0.31267985  0.64383406    -0.59100
O613        O  0.84994624  0.35137772  0.67349824    -0.50000
C614        C  0.81149615  0.23613922  0.66808112     0.72000
O615        O  0.84814651  0.23082377  0.66831658    -0.44900
C616        C  0.84237620  0.28485794  0.74725037     0.76700
O617        O  0.91997603  0.26027216  0.68219327    -0.56700
O618        O  0.83622111  0.31577316  0.73206729    -0.46800
O619        O  0.91539853  0.31120927  0.71025021    -0.53200
C620        C  0.86982138  0.34714065  0.64925225     0.86900
O621        O  0.80031681  0.27008677  0.67606329    -0.55100
O622        O  0.85589912  0.25637951  0.73213416    -0.58300
C623        C  0.07961270  0.52420206  0.60287619     0.88300
C624        C  0.08546758  0.52088599  0.56838413    -0.52000
C625        C  0.07020648  0.48726772  0.55640993     0.11200
C626        C  0.05053877  0.45999907  0.58017905     0.22100
C627        C  0.03493005  0.52027281  0.60783384    -0.52700
C628        C  0.01959279  0.48650528  0.59597259     0.11300
C629        C  0.09726776  0.48668404  0.61605531    -0.52200
C630        C  0.08218808  0.45308541  0.60433622     0.11800
H631        H  0.09990094  0.54317127  0.55463344     0.16400
H632        H  0.03812009  0.43266680  0.57041956     0.02100
H633        H  0.01700398  0.54236035  0.61920875     0.16700
H634        H  0.11937809  0.48670043  0.63366167     0.16500
In635      In  0.12213831  0.29116408  0.68514653     1.36900
C636        C  0.04682116  0.27246934  0.68691733     0.79300
O637        O  0.12173791  0.26557542  0.73207237    -0.59100
O638        O  0.15020963  0.32031691  0.72585403    -0.50000
C639        C  0.17543236  0.23968372  0.66609086     0.72000
O640        O  0.13911201  0.23326759  0.66576692    -0.44900
C641        C  0.11403995  0.35292852  0.64820162     0.76700
O642        O  0.07128088  0.25360026  0.67096790    -0.56700
O643        O  0.11905217  0.35634449  0.67633254    -0.46800
O644        O  0.06116620  0.29999402  0.70235054    -0.53200
C645        C  0.13972190  0.29375994  0.74419945     0.86900
O646        O  0.18499190  0.27380157  0.67454715    -0.55100
O647        O  0.11626055  0.31830694  0.63842437    -0.58300
In648      In  0.13411290  0.67167705  0.69345372     1.36900
C649        C  0.05783537  0.67978786  0.70204325     0.79300
O650        O  0.11483753  0.65212982  0.64712886    -0.59100
O651        O  0.14269889  0.61016026  0.67515336    -0.50000
C652        C  0.18443372  0.72801758  0.67758373     0.72000
O653        O  0.14812702  0.73364143  0.68095352    -0.44900
C654        C  0.15248182  0.66211858  0.75147323     0.76700
O655        O  0.07724857  0.70270452  0.68509906    -0.56700
O656        O  0.16040868  0.63631304  0.73164533    -0.46800
O657        O  0.07771175  0.65414608  0.71544586    -0.53200
C658        C  0.12425927  0.61684670  0.65102484     0.86900
O659        O  0.19514115  0.69269564  0.68039202    -0.55100
O660        O  0.13738759  0.69310793  0.74115769    -0.58300
C661        C  0.92317942  0.52286459  0.97803232     0.88300
C662        C  0.91182169  0.52048941  0.51265713    -0.52000
C663        C  0.92712209  0.48660894  0.52407741     0.11200
C664        C  0.94680914  0.45983607  0.50000744     0.22100
C665        C  0.96756431  0.51726518  0.97274701    -0.52700
C666        C  0.97766570  0.48672332  0.48459803     0.11300
C667        C  0.90377772  0.48706277  0.96369474    -0.52200
C668        C  0.91727848  0.45233249  0.97429089     0.11800
H669        H  0.89744429  0.54256504  0.52674665     0.16400
H670        H  0.95925564  0.43231677  0.50939912     0.02100
H671        H  0.98637293  0.53911715  0.96208114     0.16700
H672        H  0.88108335  0.48900572  0.94659182     0.16500
In673      In  0.86223326  0.30235152  0.88925783     1.36900
C674        C  0.93771667  0.28818365  0.87941589     0.79300
O675        O  0.85187197  0.27704841  0.84338241    -0.59100
O676        O  0.83932601  0.33766774  0.84987508    -0.50000
C677        C  0.80621381  0.25414247  0.90831024     0.72000
O678        O  0.84152744  0.24367006  0.90479034    -0.44900
C679        C  0.87484691  0.35759983  0.93020816     0.76700
O680        O  0.91718855  0.26691814  0.89688849    -0.56700
O681        O  0.85739288  0.36455750  0.90569775    -0.46800
O682        O  0.91932195  0.31532674  0.86648577    -0.53200
C683        C  0.84096205  0.30897396  0.83167305     0.86900
O684        O  0.79990853  0.29020064  0.90413558    -0.55100
O685        O  0.88262120  0.32209198  0.93499695    -0.58300
In686      In  0.86848592  0.66199404  0.88194376     1.36900
C687        C  0.94432043  0.67412652  0.87436793     0.79300
O688        O  0.88768704  0.64825102  0.92915922    -0.59100
O689        O  0.86515625  0.60158535  0.90218575    -0.50000
C690        C  0.80653043  0.70426257  0.89874297     0.72000
O691        O  0.84070162  0.71870795  0.89685448    -0.44900
C692        C  0.85284276  0.65509792  0.82328559     0.76700
O693        O  0.92292417  0.69854309  0.88868919    -0.56700
O694        O  0.85000658  0.62629377  0.84130594    -0.46800
O695        O  0.92648869  0.64542242  0.86297961    -0.53200
C696        C  0.88106115  0.61207470  0.92670076     0.86900
O697        O  0.80455970  0.66795831  0.89337872    -0.55100
O698        O  0.86214944  0.68721212  0.83565040    -0.58300
C699        C  0.08225448  0.43218729  0.97474480     0.88300
C700        C  0.08668587  0.44557204  0.51143949    -0.52000
C701        C  0.07070283  0.47904641  0.52339846     0.11200
C702        C  0.05079398  0.50569673  0.49970957     0.22100
C703        C  0.03767664  0.43741109  0.97130561    -0.52700
C704        C  0.02050296  0.47846580  0.48456195     0.11300
C705        C  0.10065846  0.46877852  0.96034910    -0.52200
C706        C  0.08686553  0.50306877  0.97217159     0.11800
H707        H  0.10122914  0.42358586  0.52516880     0.16400
H708        H  0.03775412  0.53291779  0.50946365     0.02100
H709        H  0.01883956  0.41581966  0.96064396     0.16700
H710        H  0.12226362  0.46766757  0.94197941     0.16500
In711      In  0.12708590  0.66874965  0.89599217     1.36900
C712        C  0.05169155  0.68723794  0.89340315     0.79300
O713        O  0.13132580  0.70524124  0.85424977    -0.59100
O714        O  0.14787641  0.64519547  0.85034906    -0.50000
C715        C  0.18689549  0.71030563  0.91619342     0.72000
O716        O  0.15174555  0.72184634  0.91847265    -0.44900
C717        C  0.11830069  0.60482661  0.92990106     0.76700
O718        O  0.07454404  0.70447794  0.91142116    -0.56700
O719        O  0.13004924  0.60330827  0.90264057    -0.46800
O720        O  0.06765749  0.66116338  0.87707082    -0.53200
C721        C  0.14301332  0.67780930  0.83719258     0.86900
O722        O  0.19117808  0.67600214  0.90589979    -0.55100
O723        O  0.11329728  0.63889308  0.94034051    -0.58300
In724      In  0.12240277  0.27357072  0.88939487     1.36900
C725        C  0.04543056  0.26276167  0.89006625     0.79300
O726        O  0.11106461  0.30001742  0.93540500    -0.59100
O727        O  0.12979634  0.33805103  0.89988409    -0.50000
C728        C  0.17908022  0.22578471  0.90776881     0.72000
O729        O  0.14340196  0.21605372  0.90737822    -0.44900
C730        C  0.13382794  0.26957495  0.82937124     0.76700
O731        O  0.06800552  0.24170518  0.90571868    -0.56700
O732        O  0.14265315  0.29993569  0.84442004    -0.46800
O733        O  0.06251549  0.28795480  0.87369922    -0.53200
C734        C  0.11763602  0.33465318  0.92696504     0.86900
O735        O  0.18582968  0.26084640  0.90006123    -0.55100
O736        O  0.12106697  0.24146202  0.84517522    -0.58300
C737        C  0.10893995  0.36784530  0.94620857    -0.11500
C738        C  0.09762615  0.39591245  0.96072048    -0.13100
C739        C  0.10923303  0.57025055  0.94730862    -0.11500
C740        C  0.09921406  0.54051430  0.96009678    -0.13100
C741        C  0.98716623  0.67640502  0.87192722    -0.14700
C742        C  0.00928451  0.69548418  0.89213106    -0.29800
H743        H  0.00106937  0.65697315  0.85539115     0.14400
H744        H  0.99582662  0.71417818  0.90935550     0.14900
C745        C  0.98019562  0.28374715  0.87490436    -0.14700
C746        C  0.00234319  0.25970099  0.89165237    -0.29800
H747        H  0.99410823  0.30366305  0.85880951     0.14400
H748        H  0.98889680  0.23998555  0.90810260     0.14900
C749        C  0.90719766  0.55904999  0.96497417    -0.11500
C750        C  0.89356492  0.58450007  0.94924811    -0.13100
C751        C  0.90182394  0.41584845  0.96312561    -0.11500
C752        C  0.88792871  0.38824156  0.94996262    -0.13100
C753        C  0.14801268  0.68418434  0.80429885    -0.14700
C754        C  0.15757686  0.65572194  0.78438838    -0.29800
H755        H  0.14014908  0.71310797  0.79593905     0.14400
H756        H  0.16556864  0.62666896  0.79234192     0.14900
C757        C  0.14611657  0.29630619  0.77740159    -0.14700
C758        C  0.13564942  0.26661144  0.79587459    -0.29800
H759        H  0.15697009  0.32361794  0.78686977     0.14400
H760        H  0.12502193  0.23941849  0.78600989     0.14900
C761        C  0.09710349  0.55951593  0.61660912    -0.11500
C762        C  0.11155275  0.58614807  0.63083847    -0.13100
C763        C  0.09392208  0.41512154  0.61590186    -0.11500
C764        C  0.10429775  0.38590116  0.62919231    -0.13100
C765        C  0.83731370  0.28166350  0.78039126    -0.14700
C766        C  0.83352270  0.31288681  0.79883400    -0.29800
H767        H  0.84223977  0.25281860  0.79014449     0.14400
H768        H  0.82937900  0.34202439  0.78942941     0.14900
C769        C  0.97969069  0.28662725  0.70265978    -0.14700
C770        C  0.00458273  0.26421355  0.68651544    -0.29800
H771        H  0.99089713  0.30932769  0.71759984     0.14400
H772        H  0.99370111  0.24187998  0.67113004     0.14900
C773        C  0.84813172  0.65123748  0.79006322    -0.14700
C774        C  0.85137677  0.68284123  0.77199797    -0.29800
H775        H  0.84558814  0.62208316  0.78027149     0.14400
H776        H  0.85407904  0.71179241  0.78215664     0.14900
C777        C  0.99285390  0.70185510  0.68622566    -0.14700
C778        C  0.01506360  0.68064429  0.70493252    -0.29800
H779        H  0.00624506  0.72203686  0.67008269     0.14400
H780        H  0.00149531  0.65999885  0.72064380     0.14900
C781        C  0.88225698  0.37953987  0.63053576    -0.11500
C782        C  0.89733642  0.40653712  0.61696261    -0.13100
C783        C  0.90226335  0.55097561  0.61489849    -0.11500
C784        C  0.89185781  0.58140385  0.62660021    -0.13100
C785        C  0.77429715  0.22584109  0.91391872    -0.14700
C786        C  0.78224094  0.18746854  0.91674953    -0.29800
H787        H  0.74419325  0.23578805  0.91132630     0.14400
H788        H  0.81245509  0.17780048  0.91930915     0.14900
C789        C  0.21003700  0.19695279  0.91454388    -0.14700
C790        C  0.24848210  0.20507354  0.91144138    -0.29800
H791        H  0.20068380  0.16686733  0.91839584     0.14400
H792        H  0.25804249  0.23500244  0.90723113     0.14900
C793        C  0.61392062  0.08510308  0.95255173    -0.11500
C794        C  0.58599042  0.07289769  0.96681915    -0.13100
C795        C  0.44189531  0.07885930  0.96437611    -0.11500
C796        C  0.41411854  0.09218648  0.95096626    -0.13100
C797        C  0.21501287  0.77449831  0.92743473    -0.14700
C798        C  0.22058750  0.73618333  0.92186924    -0.29800
H799        H  0.18563273  0.78543901  0.93244049     0.14400
H800        H  0.24975640  0.72522996  0.91618704     0.14900
C801        C  0.28112065  0.97708723  0.89616198    -0.14700
C802        C  0.30752237  0.99812238  0.88035785    -0.29800
H803        H  0.25977126  0.99140186  0.91101218     0.14400
H804        H  0.32901294  0.98332357  0.86589327     0.14900
C805        C  0.77300555  0.76674508  0.90965231    -0.14700
C806        C  0.77096580  0.72800814  0.90457069    -0.29800
H807        H  0.80147013  0.78053693  0.91261896     0.14400
H808        H  0.74260741  0.71413967  0.90128933     0.14900
C809        C  0.69419556  0.95961312  0.87472702    -0.14700
C810        C  0.72027123  0.98183237  0.88944618    -0.29800
H811        H  0.67184924  0.97326206  0.86082863     0.14400
H812        H  0.74254250  0.96847351  0.90355988     0.14900
C813        C  0.41889344  0.88462245  0.96597433    -0.11500
C814        C  0.38977622  0.87281851  0.95358748    -0.13100
C815        C  0.56345901  0.87593903  0.96232807    -0.11500
C816        C  0.59219887  0.86231521  0.94982091    -0.13100
C817        C  0.24160561  0.21056716  0.66641477    -0.14700
C818        C  0.20349363  0.20792101  0.65954571    -0.29800
H819        H  0.25414589  0.23864015  0.67283829     0.14400
H820        H  0.19115272  0.17958172  0.65355778     0.14900
C821        C  0.30128311  0.12964509  0.78149868    -0.14700
C822        C  0.33300393  0.13608338  0.79867535    -0.29800
H823        H  0.27300466  0.12419103  0.79240888     0.14400
H824        H  0.36144527  0.14167706  0.78811423     0.14900
C825        C  0.74581896  0.20581240  0.66810384    -0.14700
C826        C  0.78443159  0.20350216  0.66178239    -0.29800
H827        H  0.73259573  0.23391508  0.67391951     0.14400
H828        H  0.79754318  0.17519075  0.65642147     0.14900
C829        C  0.67471768  0.12276480  0.78228376    -0.14700
C830        C  0.70671113  0.11803637  0.79947300    -0.29800
H831        H  0.64607538  0.12714893  0.79290338     0.14400
H832        H  0.73509706  0.11315367  0.78853597     0.14900
C833        C  0.41918456  0.07600052  0.61352856    -0.11500
C834        C  0.39187991  0.08880474  0.62816456    -0.13100
C835        C  0.56334930  0.07459846  0.61649727    -0.11500
C836        C  0.59174827  0.08527837  0.63042514    -0.13100
C837        C  0.25067102  0.75751871  0.67564066    -0.14700
C838        C  0.21161413  0.76122297  0.67305415    -0.29800
H839        H  0.26372981  0.72857402  0.67784616     0.14400
H840        H  0.19868019  0.79030984  0.67151164     0.14900
C841        C  0.32503539  0.83068051  0.78944795    -0.14700
C842        C  0.29294227  0.83691988  0.80690712    -0.29800
H843        H  0.35336779  0.82546187  0.79978709     0.14400
H844        H  0.26489519  0.84263218  0.79623545     0.14900
C845        C  0.30271653  0.97071882  0.70945704    -0.14700
C846        C  0.27881876  0.99349435  0.69307633    -0.29800
H847        H  0.32410926  0.98425919  0.72430094     0.14400
H848        H  0.25740644  0.98062841  0.67793918     0.14900
C849        C  0.75579050  0.75480278  0.65802473    -0.14700
C850        C  0.79411022  0.75991150  0.65216924    -0.29800
H851        H  0.74432101  0.72555334  0.66228218     0.14400
H852        H  0.80553231  0.78929068  0.64837598     0.14900
C853        C  0.69880523  0.82018298  0.77944386    -0.14700
C854        C  0.66855017  0.81438013  0.79873604    -0.29800
H855        H  0.72795792  0.82538494  0.78840718     0.14400
H856        H  0.63920539  0.80913506  0.79021961     0.14900
C857        C  0.69355270  0.96444615  0.70411971    -0.14700
C858        C  0.71503108  0.99007305  0.68792171    -0.29800
H859        H  0.67098126  0.97523864  0.71969988     0.14400
H860        H  0.73740774  0.97993250  0.67194772     0.14900
C861        C  0.43260437  0.88381324  0.61724982    -0.11500
C862        C  0.40490610  0.87348118  0.63271978    -0.13100
C863        C  0.60285751  0.86792925  0.62841384    -0.11500
C864        C  0.57633996  0.88137485  0.61394888    -0.13100
loop_ 
_geom_bond_atom_site_label_1 
_geom_bond_atom_site_label_2 
_geom_bond_distance 
_geom_bond_site_symmetry_2 
_ccdc_geom_bond_type 
C1            C2   1.535       .  S
C1            C7   1.529       .  S
C1            C5   1.540       .  S
C1          C432   1.473       .  S
C2            H9   1.086       .  S
C2            C3   1.368       .  D
C3            C4   1.540       .  S
C3           C79   1.474       .  S
C4            C8   1.537       .  S
C4            C6   1.545       .  S
C4           H10   1.111       .  S
C5           H11   1.086       .  S
C5            C6   1.369       .  D
C6           C44   1.487       .  S
C7           H12   1.087       .  S
C7            C8   1.357       .  D
C8          C429   1.443       .  S
In13         O15   2.242       .  S
In13         O16   2.260       .  S
In13         O24   2.262       .  S
In13         O18   2.232       .  S
In13         O20   2.238       .  S
In13         O21   2.270       .  S
In13         O22   2.218       .  S
In13         O25   2.221       .  S
C14          O20   1.264       .  A
C14          O22   1.257       .  A
C14         C425   1.459       .  S
O15          C23   1.257       .  A
O16          C23   1.263       .  A
C17          O24   1.264       .  A
C17          O18   1.258       .  A
C17         C417   1.474       .  S
C19          O21   1.265       .  A
C19          O25   1.261       .  A
C19         C421   1.479       .  S
C23         C431   1.440       .  S
In26         O28   2.221       .  S
In26         O29   2.263       .  S
In26         O37   2.258       .  S
In26         O31   2.230       .  S
In26         O33   2.239       .  S
In26         O34   2.252       .  S
In26         O35   2.221       .  S
In26         O38   2.249       .  S
C27          O33   1.262       .  A
C27          O35   1.258       .  A
C27         C413   1.458       .  S
O28          C36   1.261       .  A
O29          C36   1.263       .  A
C30          O37   1.264       .  A
C30          O31   1.257       .  A
C30         C405   1.472       .  S
C32          O34   1.260       .  A
C32          O38   1.257       .  A
C32         C430   1.437       .  S
C36         C409   1.475       .  S
C39          C40   1.535       .  S
C39          C45   1.532       .  S
C39          C43   1.538       .  S
C39         C401   1.475       .  S
C40          H47   1.086       .  S
C40          C41   1.368       .  D
C41          C42   1.545       .  S
C41         C117   1.481       .  S
C42          C46   1.540       .  S
C42          C44   1.546   1_545  S
C42          H48   1.111       .  S
C43          H49   1.086   1_545  S
C43          C44   1.367   1_545  D
C45          H50   1.087       .  S
C45          C46   1.360       .  D
C46         C403   1.448       .  S
In51         O53   2.229       .  S
In51         O54   2.273       .  S
In51         O62   2.256       .  S
In51         O56   2.225       .  S
In51         O58   2.242       .  S
In51         O59   2.260       .  S
In51         O60   2.217       .  S
In51         O63   2.257       .  S
C52          O58   1.259       .  A
C52          O60   1.261       .  A
C52         C426   1.464   1_545  S
O53          C61   1.258       .  A
O54          C61   1.265       .  A
C55          O62   1.264       .  A
C55          O56   1.256       .  A
C55         C393   1.470       .  S
C57          O59   1.260       .  A
C57          O63   1.257       .  A
C57         C404   1.442       .  S
C61         C397   1.474       .  S
In64         O66   2.253       .  S
In64         O67   2.258       .  S
In64         O75   2.251       .  S
In64         O69   2.231       .  S
In64         O71   2.250       .  S
In64         O72   2.267       .  S
In64         O73   2.204       .  S
In64         O76   2.232       .  S
C65          O71   1.262       .  A
C65          O73   1.260       .  A
C65         C414   1.465   1_545  S
O66          C74   1.258       .  A
O67          C74   1.262       .  A
C68          O75   1.264       .  A
C68          O69   1.259       .  A
C68         C385   1.471       .  S
C70          O72   1.266       .  A
C70          O76   1.259       .  A
C70         C389   1.475       .  S
C74         C402   1.442       .  S
C77          C83   1.530       .  S
C77          C81   1.538       .  S
C77         C510   1.531       .  S
C77         C381   1.466       .  S
C78         C509   1.532   1_554  S
C78          H85   1.086       .  S
C78          C79   1.366       .  D
C79          C80   1.541   1_554  S
C80          C82   1.547       .  S
C80         C516   1.539       .  S
C80          H86   1.111   1_556  S
C81          H87   1.086       .  S
C81         C514   1.368       .  D
C82         C513   1.367       .  D
C82         C120   1.486       .  S
C83          H88   1.087       .  S
C83          C84   1.358       .  D
C84         C512   1.538       .  S
C84         C383   1.444       .  S
In89         O91   2.220       .  S
In89         O92   2.271       .  S
In89        O100   2.235       .  S
In89         O94   2.237       .  S
In89         O96   2.251       .  S
In89         O97   2.251       .  S
In89         O98   2.217       .  S
In89        O101   2.242       .  S
C90          O96   1.265       .  A
C90          O98   1.259       .  A
C90         C377   1.465       .  S
O91          C99   1.259       .  A
O92          C99   1.266       .  A
C93         O100   1.263       .  A
C93          O94   1.262       .  A
C93         C373   1.470       .  S
C95          O97   1.263       .  A
C95         O101   1.259       .  A
C95         C384   1.438       .  S
C99         C422   1.472       .  S
In102       O104   2.228       .  S
In102       O105   2.242       .  S
In102       O113   2.233       .  S
In102       O107   2.234       .  S
In102       O109   2.260       .  S
In102       O110   2.255       .  S
In102       O111   2.202       .  S
In102       O114   2.209       .  S
C103        O109   1.268       .  A
C103        O111   1.259       .  A
C103        C369   1.465       .  S
O104        C112   1.259       .  A
O105        C112   1.265       .  A
C106        O113   1.262       .  A
C106        O107   1.266       .  A
C106        C365   1.473       .  S
C108        O110   1.269       .  A
C108        O114   1.261       .  A
C108        C410   1.469       .  S
C112        C382   1.433       .  S
C115        C121   1.529       .  S
C115        C119   1.539       .  S
C115        C548   1.535       .  S
C115        C362   1.470       .  S
C116        C547   1.535   1_554  S
C116        H123   1.086       .  S
C116        C117   1.369       .  D
C117        C118   1.545   1_554  S
C118        C120   1.547   1_545  S
C118        C554   1.541       .  S
C118        H124   1.111   1_556  S
C119        H125   1.086   1_545  S
C119        C552   1.368       .  D
C120        C551   1.367   1_565  D
C121        H126   1.087       .  S
C121        C122   1.357       .  D
C122        C550   1.536       .  S
C122        C363   1.442       .  S
In127       O129   2.240       .  S
In127       O130   2.258       .  S
In127       O138   2.252       .  S
In127       O132   2.236       .  S
In127       O134   2.264       .  S
In127       O135   2.249       .  S
In127       O136   2.216       .  S
In127       O139   2.254       .  S
C128        O134   1.262       .  A
C128        O136   1.260       .  A
C128        C370   1.474   1_545  S
O129        C137   1.262       .  A
O130        C137   1.263       .  A
C131        O138   1.260       .  A
C131        O132   1.261       .  A
C131        C358   1.473       .  S
C133        O135   1.259       .  A
C133        O139   1.257       .  A
C133        C364   1.436       .  S
C137        C390   1.479       .  S
In140       O142   2.246       .  S
In140       O143   2.253       .  S
In140       O151   2.255       .  S
In140       O145   2.231       .  S
In140       O147   2.254       .  S
In140       O148   2.263       .  S
In140       O149   2.214       .  S
In140       O152   2.232       .  S
C141        O147   1.263       .  A
C141        O149   1.260       .  A
C141        C378   1.470       .  S
O142        C150   1.257       .  A
O143        C150   1.262       .  A
C144        O151   1.261       .  A
C144        O145   1.261       .  A
C144        C354   1.474       .  S
C146        O148   1.264       .  A
C146        O152   1.262       .  A
C146        C398   1.479       .  S
C150        C361   1.438       .  S
C153        C154   1.532       .  S
C153        C159   1.529       .  S
C153        C157   1.535       .  S
C153        C350   1.466       .  S
C154        H161   1.086       .  S
C154        C155   1.368       .  D
C155        C156   1.541       .  S
C155        C231   1.474       .  S
C156        C160   1.536       .  S
C156        C158   1.545       .  S
C156        H162   1.111       .  S
C157        H163   1.086       .  S
C157        C158   1.365       .  D
C158        C196   1.481   1_655  S
C159        H164   1.087       .  S
C159        C160   1.358       .  D
C160        C351   1.441       .  S
In165       O167   2.225       .  S
In165       O168   2.257       .  S
In165       O176   2.246       .  S
In165       O170   2.243       .  S
In165       O172   2.271       .  S
In165       O173   2.242       .  S
In165       O174   2.216       .  S
In165       O177   2.246       .  S
C166        O172   1.265       .  A
C166        O174   1.257       .  A
C166        C345   1.468       .  S
O167        C175   1.263       .  A
O168        C175   1.264       .  A
C169        O176   1.261       .  A
C169        O170   1.264       .  A
C169        C418   1.476       .  S
C171        O173   1.261       .  A
C171        O177   1.259       .  A
C171        C352   1.435       .  S
C175        C342   1.476       .  S
In178       O180   2.238       .  S
In178       O181   2.241       .  S
In178       O189   2.238       .  S
In178       O183   2.238       .  S
In178       O185   2.266       .  S
In178       O186   2.260       .  S
In178       O187   2.205       .  S
In178       O190   2.225       .  S
C179        O185   1.265       .  A
C179        O187   1.261       .  A
C179        C337   1.475       .  S
O180        C188   1.259       .  A
O181        C188   1.263       .  A
C182        O189   1.260       .  A
C182        O183   1.265       .  A
C182        C394   1.472       .  S
C184        O186   1.266       .  A
C184        O190   1.261       .  A
C184        C333   1.472       .  S
C188        C349   1.433       .  S
C191        C192   1.537       .  S
C191        C197   1.529       .  S
C191        C195   1.536       .  S
C191        C329   1.471       .  S
C192        H199   1.086       .  S
C192        C193   1.371       .  D
C193        C194   1.545       .  S
C193        C269   1.483       .  S
C194        C198   1.541       .  S
C194        C196   1.545       .  S
C194        H200   1.111       .  S
C195        H201   1.086       .  S
C195        C196   1.365       .  D
C197        H202   1.087       .  S
C197        C198   1.357       .  D
C198        C331   1.446       .  S
In203       O205   2.227       .  S
In203       O206   2.263       .  S
In203       O214   2.248       .  S
In203       O208   2.238       .  S
In203       O210   2.263       .  S
In203       O211   2.251       .  S
In203       O212   2.213       .  S
In203       O215   2.252       .  S
C204        O210   1.265       .  A
C204        O212   1.258       .  A
C204        C338   1.466       .  S
O205        C213   1.262       .  A
O206        C213   1.264       .  A
C207        O214   1.261       .  A
C207        O208   1.263       .  A
C207        C386   1.473       .  S
C209        O211   1.262       .  A
C209        O215   1.258       .  A
C209        C332   1.441       .  S
C213        C325   1.478       .  S
In216       O218   2.246       .  S
In216       O219   2.254       .  S
In216       O227   2.245       .  S
In216       O221   2.244       .  S
In216       O223   2.265       .  S
In216       O224   2.261       .  S
In216       O225   2.214       .  S
In216       O228   2.242       .  S
C217        O223   1.264       .  A
C217        O225   1.261       .  A
C217        C346   1.476       .  S
O218        C226   1.258       .  A
O219        C226   1.263       .  A
C220        O227   1.260       .  A
C220        O221   1.264       .  A
C220        C406   1.475       .  S
C222        O224   1.265       .  A
C222        O228   1.263       .  A
C222        C322   1.482       .  S
C226        C330   1.439       .  S
C229        C235   1.528       .  S
C229        C233   1.538       .  S
C229        C662   1.531       .  S
C229        C317   1.466       .  S
C230        C661   1.536   1_554  S
C230        H237   1.086       .  S
C230        C231   1.370       .  D
C231        C232   1.540   1_554  S
C232        C234   1.543       .  S
C232        C668   1.535       .  S
C232        H238   1.111   1_556  S
C233        H239   1.086       .  S
C233        C666   1.368       .  D
C234        C665   1.368       .  D
C234        C272   1.483   1_655  S
C235        H240   1.087       .  S
C235        C236   1.357       .  D
C236        C664   1.540       .  S
C236        C319   1.444       .  S
In241       O243   2.224       .  S
In241       O244   2.265       .  S
In241       O252   2.253       .  S
In241       O246   2.228       .  S
In241       O248   2.238       .  S
In241       O249   2.253       .  S
In241       O250   2.217       .  S
In241       O253   2.246       .  S
C242        O248   1.263       .  A
C242        O250   1.258       .  A
C242        C313   1.460       .  S
O243        C251   1.261       .  A
O244        C251   1.264       .  A
C245        O252   1.263       .  A
C245        O246   1.259       .  A
C245        C353   1.470       .  S
C247        O249   1.262       .  A
C247        O253   1.257       .  A
C247        C320   1.438       .  S
C251        C334   1.478       .  S
In254       O256   2.230       .  S
In254       O257   2.248       .  S
In254       O265   2.240       .  S
In254       O259   2.230       .  S
In254       O261   2.249       .  S
In254       O262   2.259       .  S
In254       O263   2.208       .  S
In254       O266   2.220       .  S
C255        O261   1.265       .  A
C255        O263   1.257       .  A
C255        C309   1.460       .  S
O256        C264   1.257       .  A
O257        C264   1.264       .  A
C258        O265   1.262       .  A
C258        O259   1.263       .  A
C258        C374   1.471       .  S
C260        O262   1.267       .  A
C260        O266   1.261       .  A
C260        C341   1.471       .  S
C264        C318   1.433       .  S
C267        C273   1.532       .  S
C267        C271   1.539       .  S
C267        C700   1.533       .  S
C267        C306   1.473       .  S
C268        C699   1.536   1_554  S
C268        H275   1.086       .  S
C268        C269   1.369       .  D
C269        C270   1.545   1_554  S
C270        C272   1.544       .  S
C270        C706   1.538       .  S
C270        H276   1.111   1_556  S
C271        H277   1.086       .  S
C271        C704   1.368       .  D
C272        C703   1.366       .  D
C273        H278   1.087       .  S
C273        C274   1.361       .  D
C274        C702   1.542       .  S
C274        C308   1.451       .  S
In279       O281   2.239       .  S
In279       O282   2.273       .  S
In279       O290   2.257       .  S
In279       O284   2.232       .  S
In279       O286   2.254       .  S
In279       O287   2.264       .  S
In279       O288   2.214       .  S
In279       O291   2.264       .  S
C280        O286   1.260       .  A
C280        O288   1.260       .  A
C280        C310   1.467   1_455  S
O281        C289   1.259       .  A
O282        C289   1.265       .  A
C283        O290   1.263       .  A
C283        O284   1.257       .  A
C283        C366   1.471       .  S
C285        O287   1.260       .  A
C285        O291   1.257       .  A
C285        C307   1.446       .  S
C289        C321   1.478       .  S
In292       O294   2.245       .  S
In292       O295   2.259       .  S
In292       O303   2.255       .  S
In292       O297   2.228       .  S
In292       O299   2.248       .  S
In292       O300   2.268       .  S
In292       O301   2.212       .  S
In292       O304   2.226       .  S
C293        O299   1.261       .  A
C293        O301   1.260       .  A
C293        C314   1.465       .  S
O294        C302   1.257       .  A
O295        C302   1.261       .  A
C296        O303   1.263       .  A
C296        O297   1.258       .  A
C296        C357   1.470       .  S
C298        O300   1.265       .  A
C298        O304   1.259       .  A
C298        C326   1.472       .  S
C302        C305   1.439       .  S
C305        C306   1.209       .  T
C307        C308   1.212       .  T
C309        H311   1.087       .  S
C309        C310   1.338       .  D
C310        H312   1.087       .  S
C313        H315   1.087   1_655  S
C313        C314   1.339   1_655  D
C314        H316   1.086   1_455  S
C317        C318   1.205       .  T
C319        C320   1.207       .  T
C321        H323   1.087       .  S
C321        C322   1.345       .  D
C322        H324   1.086       .  S
C325        H327   1.086       .  S
C325        C326   1.344       .  D
C326        H328   1.087       .  S
C329        C330   1.208       .  T
C331        C332   1.209       .  T
C333        H335   1.087       .  S
C333        C334   1.344       .  D
C334        H336   1.086       .  S
C337        H339   1.086   1_655  S
C337        C338   1.342   1_655  D
C338        H340   1.087       .  S
C341        H343   1.087       .  S
C341        C342   1.342       .  D
C342        H344   1.086       .  S
C345        H347   1.087       .  S
C345        C346   1.342   1_655  D
C346        H348   1.086   1_455  S
C349        C350   1.205       .  T
C351        C352   1.206       .  T
C353        H355   1.087       .  S
C353        C354   1.342       .  D
C354        H356   1.086       .  S
C357        H359   1.087       .  S
C357        C358   1.341       .  D
C358        H360   1.087       .  S
C361        C362   1.208       .  T
C363        C364   1.206       .  T
C365        H367   1.087       .  S
C365        C366   1.340       .  D
C366        H368   1.087       .  S
C369        H371   1.087       .  S
C369        C370   1.340       .  D
C370        H372   1.086       .  S
C373        H375   1.087       .  S
C373        C374   1.342       .  D
C374        H376   1.087       .  S
C377        H379   1.087       .  S
C377        C378   1.340   1_565  D
C378        H380   1.086   1_545  S
C381        C382   1.205       .  T
C383        C384   1.207       .  T
C385        H387   1.087       .  S
C385        C386   1.341       .  D
C386        H388   1.087       .  S
C389        H391   1.087       .  S
C389        C390   1.343       .  D
C390        H392   1.086       .  S
C393        H395   1.087       .  S
C393        C394   1.339       .  D
C394        H396   1.087       .  S
C397        H399   1.087       .  S
C397        C398   1.344       .  D
C398        H400   1.086       .  S
C401        C402   1.210       .  T
C403        C404   1.210       .  T
C405        H407   1.087       .  S
C405        C406   1.341       .  D
C406        H408   1.086       .  S
C409        H411   1.086       .  S
C409        C410   1.342       .  D
C410        H412   1.087       .  S
C413        H415   1.087       .  S
C413        C414   1.339       .  D
C414        H416   1.086       .  S
C417        H419   1.087       .  S
C417        C418   1.341       .  D
C418        H420   1.086       .  S
C421        H423   1.086       .  S
C421        C422   1.344       .  D
C422        H424   1.087       .  S
C425        H427   1.087       .  S
C425        C426   1.337       .  D
C426        H428   1.087       .  S
C429        C430   1.207       .  T
C431        C432   1.209       .  T
C433        C434   1.529       .  S
C433        C439   1.528       .  S
C433        C437   1.536       .  S
C433        C864   1.461       .  S
C434        H441   1.086       .  S
C434        C435   1.364       .  D
C435        C436   1.547       .  S
C435        C511   1.474       .  S
C436        C440   1.542       .  S
C436        C438   1.544       .  S
C436        H442   1.111       .  S
C437        H443   1.086       .  S
C437        C438   1.366       .  D
C438        C476   1.480   1_565  S
C439        H444   1.087       .  S
C439        C440   1.357       .  D
C440        C861   1.447       .  S
In445       O447   2.218       .  S
In445       O448   2.236       .  S
In445       O456   2.228       .  S
In445       O450   2.227       .  S
In445       O452   2.258       .  S
In445       O453   2.257       .  S
In445       O454   2.203       .  S
In445       O457   2.213       .  S
C446        O452   1.268       .  A
C446        O454   1.259       .  A
C446        C857   1.466       .  S
O447        C455   1.259       .  A
O448        C455   1.266       .  A
C449        O456   1.262       .  A
C449        O450   1.267       .  A
C449        C849   1.469       .  S
C451        O453   1.268       .  A
C451        O457   1.261       .  A
C451        C853   1.470       .  S
C455        C863   1.428       .  S
In458       O460   2.226       .  S
In458       O461   2.262       .  S
In458       O469   2.245       .  S
In458       O463   2.244       .  S
In458       O465   2.264       .  S
In458       O466   2.252       .  S
In458       O467   2.209       .  S
In458       O470   2.252       .  S
C459        O465   1.266       .  A
C459        O467   1.258       .  A
C459        C845   1.466       .  S
O460        C468   1.262       .  A
O461        C468   1.266       .  A
C462        O469   1.261       .  A
C462        O463   1.264       .  A
C462        C837   1.477       .  S
C464        O466   1.263       .  A
C464        O470   1.259       .  A
C464        C862   1.442       .  S
C468        C841   1.479       .  S
C471        C472   1.533       .  S
C471        C477   1.530       .  S
C471        C475   1.535       .  S
C471        C833   1.467       .  S
C472        H479   1.086       .  S
C472        C473   1.367       .  D
C473        C474   1.544       .  S
C473        C549   1.476       .  S
C474        C478   1.538       .  S
C474        C476   1.544       .  S
C474        H480   1.111       .  S
C475        H481   1.086   1_545  S
C475        C476   1.365       .  D
C477        H482   1.087       .  S
C477        C478   1.358       .  D
C478        C835   1.444       .  S
In483       O485   2.239       .  S
In483       O486   2.263       .  S
In483       O494   2.253       .  S
In483       O488   2.242       .  S
In483       O490   2.264       .  S
In483       O491   2.250       .  S
In483       O492   2.217       .  S
In483       O495   2.255       .  S
C484        O490   1.262       .  A
C484        O492   1.260       .  A
C484        C858   1.474   1_545  S
O485        C493   1.262       .  A
O486        C493   1.263       .  A
C487        O494   1.260       .  A
C487        O488   1.261       .  A
C487        C825   1.476       .  S
C489        O491   1.260       .  A
C489        O495   1.258       .  A
C489        C836   1.438       .  S
C493        C829   1.480       .  S
In496       O498   2.240       .  S
In496       O499   2.244       .  S
In496       O507   2.243       .  S
In496       O501   2.232       .  S
In496       O503   2.265       .  S
In496       O504   2.260       .  S
In496       O505   2.206       .  S
In496       O508   2.226       .  S
C497        O503   1.265       .  A
C497        O505   1.261       .  A
C497        C846   1.475   1_545  S
O498        C506   1.258       .  A
O499        C506   1.263       .  A
C500        O507   1.260       .  A
C500        O501   1.264       .  A
C500        C817   1.473       .  S
C502        O504   1.266       .  A
C502        O508   1.261       .  A
C502        C821   1.473       .  S
C506        C834   1.434       .  S
C509        C515   1.531       .  S
C509        C513   1.537       .  S
C509        C813   1.469       .  S
C510        H517   1.086       .  S
C510        C511   1.364       .  D
C511        C512   1.546       .  S
C512        C514   1.542       .  S
C512        H518   1.111       .  S
C513        H519   1.086       .  S
C514        C552   1.481   1_565  S
C515        H520   1.087       .  S
C515        C516   1.360       .  D
C516        C815   1.446       .  S
In521       O523   2.225       .  S
In521       O524   2.264       .  S
In521       O532   2.263       .  S
In521       O526   2.235       .  S
In521       O528   2.242       .  S
In521       O529   2.258       .  S
In521       O530   2.227       .  S
In521       O533   2.253       .  S
C522        O528   1.262       .  A
C522        O530   1.258       .  A
C522        C809   1.462       .  S
O523        C531   1.261       .  A
O524        C531   1.263       .  A
C525        O532   1.263       .  A
C525        O526   1.256       .  A
C525        C805   1.474       .  S
C527        O529   1.260       .  A
C527        O533   1.257       .  A
C527        C816   1.440       .  S
C531        C854   1.476       .  S
In534       O536   2.243       .  S
In534       O537   2.251       .  S
In534       O545   2.250       .  S
In534       O539   2.230       .  S
In534       O541   2.255       .  S
In534       O542   2.265       .  S
In534       O543   2.212       .  S
In534       O546   2.232       .  S
C535        O541   1.261       .  A
C535        O543   1.260       .  A
C535        C801   1.469       .  S
O536        C544   1.257       .  A
O537        C544   1.261       .  A
C538        O545   1.263       .  A
C538        O539   1.258       .  A
C538        C797   1.469       .  S
C540        O542   1.264       .  A
C540        O546   1.259       .  A
C540        C842   1.473       .  S
C544        C814   1.435       .  S
C547        C553   1.529       .  S
C547        C551   1.537       .  S
C547        C794   1.471       .  S
C548        H555   1.086       .  S
C548        C549   1.368       .  D
C549        C550   1.543       .  S
C550        C552   1.542       .  S
C550        H556   1.111       .  S
C551        H557   1.086   1_545  S
C553        H558   1.087       .  S
C553        C554   1.358       .  D
C554        C795   1.447       .  S
In559       O561   2.227       .  S
In559       O562   2.264       .  S
In559       O570   2.256       .  S
In559       O564   2.235       .  S
In559       O566   2.252       .  S
In559       O567   2.255       .  S
In559       O568   2.213       .  S
In559       O571   2.252       .  S
C560        O566   1.264       .  A
C560        O568   1.258       .  A
C560        C802   1.462   1_545  S
O561        C569   1.261       .  A
O562        C569   1.265       .  A
C563        O570   1.262       .  A
C563        O564   1.261       .  A
C563        C790   1.476       .  S
C565        O567   1.262       .  A
C565        O571   1.258       .  A
C565        C796   1.441       .  S
C569        C822   1.478       .  S
In572       O574   2.242       .  S
In572       O575   2.254       .  S
In572       O583   2.251       .  S
In572       O577   2.229       .  S
In572       O579   2.249       .  S
In572       O580   2.269       .  S
In572       O581   2.214       .  S
In572       O584   2.230       .  S
C573        O579   1.262       .  A
C573        O581   1.260       .  A
C573        C810   1.467   1_545  S
O574        C582   1.257       .  A
O575        C582   1.263       .  A
C576        O583   1.264       .  A
C576        O577   1.259       .  A
C576        C786   1.470       .  S
C578        O580   1.265       .  A
C578        O584   1.259       .  A
C578        C830   1.475       .  S
C582        C793   1.438       .  S
C585        C586   1.533       .  S
C585        C591   1.531       .  S
C585        C589   1.542       .  S
C585        C782   1.474       .  S
C586        H593   1.086       .  S
C586        C587   1.366       .  D
C587        C588   1.542       .  S
C587        C663   1.474       .  S
C588        C592   1.538       .  S
C588        C590   1.543       .  S
C588        H594   1.111       .  S
C589        H595   1.086       .  S
C589        C590   1.370       .  D
C590        C628   1.487   1_655  S
C591        H596   1.087       .  S
C591        C592   1.359       .  D
C592        C783   1.445       .  S
In597       O599   2.233       .  S
In597       O600   2.272       .  S
In597       O608   2.252       .  S
In597       O602   2.227       .  S
In597       O604   2.241       .  S
In597       O605   2.257       .  S
In597       O606   2.220       .  S
In597       O609   2.251       .  S
C598        O604   1.259       .  A
C598        O606   1.261       .  A
C598        C777   1.464       .  S
O599        C607   1.258       .  A
O600        C607   1.264       .  A
C601        O608   1.263       .  A
C601        O602   1.256       .  A
C601        C850   1.468       .  S
C603        O605   1.261       .  A
C603        O609   1.257       .  A
C603        C784   1.439       .  S
C607        C774   1.474       .  S
In610       O612   2.235       .  S
In610       O613   2.260       .  S
In610       O621   2.252       .  S
In610       O615   2.229       .  S
In610       O617   2.243       .  S
In610       O618   2.265       .  S
In610       O619   2.213       .  S
In610       O622   2.219       .  S
C611        O617   1.265       .  A
C611        O619   1.258       .  A
C611        C769   1.461       .  S
O612        C620   1.258       .  A
O613        C620   1.265       .  A
C614        O621   1.265       .  A
C614        O615   1.261       .  A
C614        C826   1.473       .  S
C616        O618   1.267       .  A
C616        O622   1.259       .  A
C616        C765   1.472       .  S
C620        C781   1.440       .  S
C623        C624   1.533       .  S
C623        C629   1.530       .  S
C623        C627   1.540       .  S
C623        C761   1.475       .  S
C624        H631   1.086       .  S
C624        C625   1.366       .  D
C625        C626   1.548       .  S
C625        C701   1.480       .  S
C626        C630   1.542       .  S
C626        C628   1.545       .  S
C626        H632   1.111       .  S
C627        H633   1.086       .  S
C627        C628   1.369       .  D
C629        H634   1.087       .  S
C629        C630   1.359       .  D
C630        C763   1.449       .  S
In635       O637   2.244       .  S
In635       O638   2.270       .  S
In635       O646   2.262       .  S
In635       O640   2.221       .  S
In635       O642   2.248       .  S
In635       O643   2.258       .  S
In635       O644   2.221       .  S
In635       O647   2.268       .  S
C636        O642   1.258       .  A
C636        O644   1.260       .  A
C636        C770   1.466       .  S
O637        C645   1.261       .  A
O638        C645   1.263       .  A
C639        O646   1.264       .  A
C639        O640   1.256       .  A
C639        C818   1.469       .  S
C641        O643   1.258       .  A
C641        O647   1.257       .  A
C641        C764   1.443       .  S
C645        C757   1.483       .  S
In648       O650   2.250       .  S
In648       O651   2.262       .  S
In648       O659   2.266       .  S
In648       O653   2.234       .  S
In648       O655   2.239       .  S
In648       O656   2.264       .  S
In648       O657   2.223       .  S
In648       O660   2.227       .  S
C649        O655   1.263       .  A
C649        O657   1.257       .  A
C649        C778   1.460       .  S
O650        C658   1.257       .  A
O651        C658   1.262       .  A
C652        O659   1.264       .  A
C652        O653   1.257       .  A
C652        C838   1.475       .  S
C654        O656   1.265       .  A
C654        O660   1.262       .  A
C654        C754   1.478       .  S
C658        C762   1.442       .  S
C661        C667   1.527       .  S
C661        C665   1.538       .  S
C661        C749   1.468       .  S
C662        H669   1.086       .  S
C662        C663   1.365       .  D
C663        C664   1.544       .  S
C664        C666   1.546       .  S
C664        H670   1.111       .  S
C665        H671   1.086       .  S
C666        C704   1.485   1_655  S
C667        H672   1.088       .  S
C667        C668   1.355       .  D
C668        C751   1.439       .  S
In673       O675   2.227       .  S
In673       O676   2.259       .  S
In673       O684   2.252       .  S
In673       O678   2.227       .  S
In673       O680   2.255       .  S
In673       O681   2.244       .  S
In673       O682   2.221       .  S
In673       O685   2.241       .  S
C674        O680   1.263       .  A
C674        O682   1.258       .  A
C674        C745   1.465       .  S
O675        C683   1.262       .  A
O676        C683   1.264       .  A
C677        O684   1.261       .  A
C677        O678   1.261       .  A
C677        C785   1.473       .  S
C679        O681   1.261       .  A
C679        O685   1.257       .  A
C679        C752   1.433       .  S
C683        C766   1.477       .  S
In686       O688   2.237       .  S
In686       O689   2.247       .  S
In686       O697   2.237       .  S
In686       O691   2.244       .  S
In686       O693   2.256       .  S
In686       O694   2.258       .  S
In686       O695   2.207       .  S
In686       O698   2.227       .  S
C687        O693   1.267       .  A
C687        O695   1.259       .  A
C687        C741   1.463       .  S
O688        C696   1.258       .  A
O689        C696   1.265       .  A
C690        O697   1.261       .  A
C690        O691   1.266       .  A
C690        C806   1.475       .  S
C692        O694   1.266       .  A
C692        O698   1.264       .  A
C692        C773   1.479       .  S
C696        C750   1.436       .  S
C699        C705   1.531       .  S
C699        C703   1.537       .  S
C699        C738   1.473       .  S
C700        H707   1.086       .  S
C700        C701   1.365       .  D
C701        C702   1.547       .  S
C702        C704   1.545       .  S
C702        H708   1.111       .  S
C703        H709   1.086       .  S
C705        H710   1.087       .  S
C705        C706   1.359       .  D
C706        C740   1.444       .  S
In711       O713   2.224       .  S
In711       O714   2.268       .  S
In711       O722   2.244       .  S
In711       O716   2.231       .  S
In711       O718   2.259       .  S
In711       O719   2.252       .  S
In711       O720   2.213       .  S
In711       O723   2.248       .  S
C712        O718   1.263       .  A
C712        O720   1.261       .  A
C712        C742   1.472       .  S
O713        C721   1.259       .  A
O714        C721   1.266       .  A
C715        O722   1.261       .  A
C715        O716   1.262       .  A
C715        C798   1.471       .  S
C717        O719   1.262       .  A
C717        O723   1.258       .  A
C717        C739   1.439       .  S
C721        C753   1.473       .  S
In724       O726   2.245       .  S
In724       O727   2.259       .  S
In724       O735   2.257       .  S
In724       O729   2.235       .  S
In724       O731   2.258       .  S
In724       O732   2.276       .  S
In724       O733   2.215       .  S
In724       O736   2.233       .  S
C725        O731   1.263       .  A
C725        O733   1.260       .  A
C725        C746   1.471       .  S
O726        C734   1.258       .  A
O727        C734   1.263       .  A
C728        O735   1.263       .  A
C728        O729   1.260       .  A
C728        C789   1.474       .  S
C730        O732   1.266       .  A
C730        O736   1.260       .  A
C730        C758   1.479       .  S
C734        C737   1.440       .  S
C737        C738   1.209       .  T
C739        C740   1.208       .  T
C741        H743   1.087   1_655  S
C741        C742   1.340   1_655  D
C742        H744   1.086   1_455  S
C745        H747   1.087       .  S
C745        C746   1.341   1_655  D
C746        H748   1.086   1_455  S
C749        C750   1.207       .  T
C751        C752   1.204       .  T
C753        H755   1.087       .  S
C753        C754   1.343       .  D
C754        H756   1.086       .  S
C757        H759   1.086       .  S
C757        C758   1.345       .  D
C758        H760   1.087       .  S
C761        C762   1.210       .  T
C763        C764   1.210       .  T
C765        H767   1.087       .  S
C765        C766   1.342       .  D
C766        H768   1.086       .  S
C769        H771   1.087       .  S
C769        C770   1.337   1_655  D
C770        H772   1.086   1_455  S
C773        H775   1.086       .  S
C773        C774   1.344       .  D
C774        H776   1.087       .  S
C777        H779   1.087   1_655  S
C777        C778   1.338   1_655  D
C778        H780   1.087       .  S
C781        C782   1.209       .  T
C783        C784   1.208       .  T
C785        H787   1.086       .  S
C785        C786   1.341       .  D
C786        H788   1.087       .  S
C789        H791   1.087       .  S
C789        C790   1.343       .  D
C790        H792   1.086       .  S
C793        C794   1.208       .  T
C795        C796   1.210       .  T
C797        H799   1.087       .  S
C797        C798   1.341       .  D
C798        H800   1.087       .  S
C801        H803   1.086       .  S
C801        C802   1.339       .  D
C802        H804   1.087       .  S
C805        H807   1.087       .  S
C805        C806   1.340       .  D
C806        H808   1.087       .  S
C809        H811   1.087       .  S
C809        C810   1.340       .  D
C810        H812   1.086       .  S
C813        C814   1.206       .  T
C815        C816   1.209       .  T
C817        H819   1.086       .  S
C817        C818   1.339       .  D
C818        H820   1.087       .  S
C821        H823   1.087       .  S
C821        C822   1.344       .  D
C822        H824   1.086       .  S
C825        H827   1.087       .  S
C825        C826   1.342       .  D
C826        H828   1.087       .  S
C829        H831   1.086       .  S
C829        C830   1.344       .  D
C830        H832   1.087       .  S
C833        C834   1.205       .  T
C835        C836   1.207       .  T
C837        H839   1.086       .  S
C837        C838   1.342       .  D
C838        H840   1.087       .  S
C841        H843   1.086       .  S
C841        C842   1.345       .  D
C842        H844   1.087       .  S
C845        H847   1.087       .  S
C845        C846   1.342       .  D
C846        H848   1.086       .  S
C849        H851   1.087       .  S
C849        C850   1.338       .  D
C850        H852   1.087       .  S
C853        H855   1.087       .  S
C853        C854   1.342       .  D
C854        H856   1.086       .  S
C857        H859   1.087       .  S
C857        C858   1.341       .  D
C858        H860   1.086       .  S
C861        C862   1.210       .  T
C863        C864   1.202       .  T
