geometry optimzed in LAMMPS
_audit_creation_date              2020-11-30 
_audit_creation_method            'lammps2cif' 
_symmetry_space_group_name_H-M    'P1' 
_symmetry_Int_Tables_number       1 
_symmetry_cell_setting            triclinic 
loop_ 
_symmetry_equiv_pos_as_xyz 
  x,y,z 
_cell_length_a                    32.89060436 
_cell_length_b                    33.15332958554363 
_cell_length_c                    31.301174521565553 
_cell_angle_alpha                 90.22781199543219 
_cell_angle_beta                  89.77680265621359 
_cell_angle_gamma                 89.8940383826436 
loop_ 
_atom_site_label 
_atom_site_type_symbol 
_atom_site_fract_x 
_atom_site_fract_y 
_atom_site_fract_z 
_atom_site_charge 
C1          C  0.32384048  0.34436189  0.17128527     0.00500
C2          C  0.33052001  0.27075456  0.25644480     0.00500
C3          C  0.24973840  0.26323340  0.17342809     0.00500
C4          C  0.24563485  0.33026789  0.25769785     0.00500
C5          C  0.33670404  0.27870092  0.66642996     0.00500
C6          C  0.25029283  0.27324566  0.74019861     0.00500
C7          C  0.25748316  0.34537280  0.66193297     0.00500
C8          C  0.32724398  0.34202990  0.75220918     0.00500
N9          N  0.48721430  0.51221672  0.88160719    -0.03100
N10         N  0.47719949  0.48513753  0.85248978    -0.55200
N11         N  0.46442071  0.60657762  0.91014589    -0.02800
N12         N  0.43745690  0.63476785  0.90087489    -0.57400
N13         N  0.49230716  0.60421262  0.87994608    -0.02400
N14         N  0.48488802  0.63075581  0.84956702    -0.55200
N15         N  0.45905092  0.51447076  0.91156992    -0.02100
N16         N  0.42928989  0.48892044  0.90340489    -0.57700
C17         C  0.44134295  0.47066880  0.86681623     0.99100
C18         C  0.45095729  0.64983819  0.86338295     0.98800
N19         N  0.49404590  0.60675008  0.04119760    -0.03300
N20         N  0.48844565  0.63565697  0.06985153    -0.55800
N21         N  0.45908712  0.51607850  0.01306632    -0.01400
N22         N  0.42884803  0.49147987  0.02266764    -0.57100
N23         N  0.48754657  0.51433533  0.04249009    -0.03300
N24         N  0.47715061  0.48853061  0.07272894    -0.56100
N25         N  0.46575483  0.60841646  0.01159358    -0.01100
N26         N  0.44035311  0.63845909  0.01952180    -0.57100
Mn27       Mn  0.46112013  0.56145575  0.96163781     1.18400
C28         C  0.45516503  0.65535906  0.05558968     1.01100
C29         C  0.44073516  0.47428777  0.05965069     1.01800
N30         N  0.58808087  0.59894330  0.87922524    -0.03300
N31         N  0.59674844  0.62619736  0.84996721    -0.59700
N32         N  0.61211662  0.50560072  0.90919765    -0.02100
N33         N  0.63895261  0.47703180  0.90041380    -0.60300
N34         N  0.58365505  0.50661716  0.87977755    -0.02900
N35         N  0.59062069  0.47874815  0.85030120    -0.59900
N36         N  0.61656106  0.59793160  0.90862654    -0.01700
N37         N  0.64529129  0.62447865  0.89994524    -0.60600
Mn38       Mn  0.53781712  0.55539130  0.87915169     1.10700
C39         C  0.63220842  0.64200872  0.86359493     1.02400
C40         C  0.62485407  0.46029822  0.86397306     1.02400
N41         N  0.58469081  0.50815009  0.04055597    -0.02900
N42         N  0.59267042  0.48117032  0.07037942    -0.58200
N43         N  0.61779609  0.59834088  0.00989572    -0.02200
N44         N  0.64819996  0.62288376  0.01876020    -0.55000
N45         N  0.58998007  0.60004032  0.04021881    -0.03500
N46         N  0.60088271  0.62582126  0.07029860    -0.57800
N47         N  0.61254440  0.50661994  0.01020960    -0.02500
N48         N  0.63984417  0.47859809  0.01866252    -0.55000
Mn49       Mn  0.53901244  0.55718780  0.04216955     1.20200
Mn50       Mn  0.61563768  0.55212254  0.95943226     1.10100
Cl51       Cl  0.53837777  0.55644835  0.96062789    -0.83000
C52         C  0.62679042  0.46277060  0.05587927     0.99400
C53         C  0.63691630  0.64002763  0.05615602     0.99200
C54         C  0.32660511  0.77571065  0.16297715     0.00500
C55         C  0.25577594  0.85146910  0.17286905     0.00500
C56         C  0.25563493  0.76287370  0.24246013     0.00500
C57         C  0.32198002  0.84162891  0.25671990     0.00500
N58         N  0.48988296  0.10089266  0.53855642    -0.03100
N59         N  0.48071161  0.12922794  0.56676026    -0.55200
N60         N  0.46488194  0.00700065  0.51060303    -0.02800
N61         N  0.43875008  0.97769565  0.51831099    -0.57400
N62         N  0.49251058  0.00860693  0.54087550    -0.02400
N63         N  0.48584541  0.98047966  0.56977997    -0.55200
N64         N  0.46232337  0.09946904  0.50823767    -0.02100
N65         N  0.43378393  0.12681011  0.51514898    -0.57700
C66         C  0.44596856  0.14526836  0.55142124     0.99100
C67         C  0.45251420  0.96137115  0.55502384     0.98800
N68         N  0.49521793  0.00440451  0.38006162    -0.03300
N69         N  0.48764499  0.97619709  0.35117073    -0.55800
N70         N  0.46504389  0.09723975  0.40737622    -0.01400
N71         N  0.43785372  0.12550628  0.39919528    -0.57100
N72         N  0.49392635  0.09718131  0.37809091    -0.03300
N73         N  0.48689701  0.12542638  0.34933474    -0.56100
N74         N  0.46654503  0.00474552  0.40953947    -0.01100
N75         N  0.43900534  0.97686737  0.40137286    -0.57100
Mn76       Mn  0.46363376  0.05205895  0.45888761     1.18400
C77         C  0.45280009  0.95907146  0.36525776     1.01100
C78         C  0.45205446  0.14290995  0.36317962     1.01800
N79         N  0.58801306  0.01085508  0.54313400    -0.03300
N80         N  0.59468979  0.98287002  0.57220670    -0.59700
N81         N  0.61444430  0.10316228  0.51070503    -0.02100
N82         N  0.64015172  0.13299583  0.51750727    -0.60300
N83         N  0.58547430  0.10341776  0.53982996    -0.02900
N84         N  0.59083364  0.13339843  0.56708896    -0.59900
N85         N  0.61697066  0.01045617  0.51401894    -0.01700
N86         N  0.64403217  0.98218075  0.52267103    -0.60600
Mn87       Mn  0.53900309  0.05600628  0.54176636     1.10700
C88         C  0.62951628  0.96519642  0.55880119     1.02400
C89         C  0.62472204  0.15168158  0.55240122     1.02400
N90         N  0.59090701  0.09836379  0.37931096    -0.02900
N91         N  0.60040812  0.12433480  0.34888778    -0.58200
N92         N  0.61934229  0.00735647  0.41315638    -0.02200
N93         N  0.64758175  0.97959467  0.40682673    -0.55000
N94         N  0.59187118  0.00590564  0.38267778    -0.03500
N95         N  0.60089566  0.97708078  0.35496502    -0.57800
N96         N  0.61822455  0.09955502  0.40994124    -0.02500
N97         N  0.64671117  0.12630457  0.40104801    -0.55000
Mn98       Mn  0.54295483  0.05144921  0.37880236     1.20200
Mn99       Mn  0.61830708  0.05516202  0.46207740     1.10100
Cl100      Cl  0.54097125  0.05366787  0.46031102    -0.83000
C101        C  0.63497174  0.14177266  0.36321322     0.99400
C102        C  0.63536942  0.96080262  0.37077048     0.99200
C103        C  0.75125766  0.34709058  0.74500114     0.00500
C104        C  0.81849538  0.34811299  0.65828432     0.00500
C105        C  0.75011730  0.27242840  0.65986690     0.00500
C106        C  0.82893056  0.27077040  0.74498635     0.00500
C107        C  0.32473951  0.76613329  0.74857683     0.00500
C108        C  0.32935460  0.83499305  0.65799443     0.00500
C109        C  0.25899472  0.75946245  0.66425847     0.00500
C110        C  0.25869118  0.84540913  0.73760655     0.00500
C111        C  0.74727328  0.83800583  0.24602449     0.00500
C112        C  0.82764551  0.76333031  0.24333438     0.00500
C113        C  0.74753215  0.77572921  0.15911382     0.00500
C114        C  0.82793548  0.84164501  0.16223164     0.00500
C115        C  0.75211658  0.76622718  0.75060676     0.00500
C116        C  0.82377475  0.76469554  0.66243018     0.00500
C117        C  0.74525304  0.83117552  0.66324798     0.00500
C118        C  0.82584789  0.83827735  0.74323355     0.00500
N119        N  0.09007332  0.09990070  0.03189491    -0.03100
N120        N  0.11743439  0.10730664  0.06175201    -0.55200
N121        N  0.99795620  0.13147614  0.00261210    -0.02800
N122        N  0.97208970  0.16068514  0.01246803    -0.57400
N123        N  0.99689222  0.10308643  0.03191468    -0.02400
N124        N  0.97033092  0.11241244  0.06219416    -0.55200
N125        N  0.09116176  0.12813685  0.00241589    -0.02100
N126        N  0.11924351  0.15523552  0.01164615    -0.57700
C127        C  0.13565737  0.14156476  0.04836434     0.99100
C128        C  0.95483803  0.14811539  0.04937255     0.98800
N129        N  0.99796966  0.10441881  0.87035984    -0.03300
N130        N  0.97163277  0.11452385  0.84042965    -0.55800
N131        N  0.09171006  0.12921024  0.90067032    -0.01400
N132        N  0.11941193  0.15685071  0.89182388    -0.57100
N133        N  0.09105705  0.10136869  0.87051532    -0.03300
N134        N  0.11831692  0.10960977  0.84061801    -0.56100
N135        N  0.99871196  0.13210189  0.90068297    -0.01100
N136        N  0.97291267  0.16149121  0.89198116    -0.57100
Mn137      Mn  0.04487834  0.13104163  0.95161532     1.18400
C138        C  0.95601202  0.14986897  0.85467505     1.01100
C139        C  0.13604847  0.14395754  0.85461864     1.01800
N140        N  0.99341166  0.00717591  0.03032568    -0.03300
N141        N  0.96613018  0.99892725  0.06014682    -0.59700
N142        N  0.08559299  0.97575864  0.00126311    -0.02100
N143        N  0.11088372  0.94612489  0.01104024    -0.60300
N144        N  0.08634119  0.00386570  0.03112099    -0.02900
N145        N  0.11209011  0.99394708  0.06164845    -0.59900
N146        N  0.99260880  0.97950841  0.00000741    -0.01700
N147        N  0.96481216  0.95197933  0.00859585    -0.60600
Mn148      Mn  0.04168775  0.05352540  0.03214132     1.10700
C149        C  0.94826943  0.96479415  0.04580353     1.02400
C150        C  0.12745166  0.95817768  0.04847883     1.02400
N151        N  0.08769854  0.00501033  0.86970192    -0.02900
N152        N  0.11422427  0.99514605  0.83960286    -0.58200
N153        N  0.99361380  0.97969489  0.89802053    -0.02200
N154        N  0.96665343  0.95174986  0.88781478    -0.55000
N155        N  0.99478594  0.00788025  0.86845839    -0.03500
N156        N  0.96865085  0.99951828  0.83760608    -0.57800
N157        N  0.08642227  0.97686830  0.89929221    -0.02500
N158        N  0.11200468  0.94737764  0.88991151    -0.55000
Mn159      Mn  0.04287629  0.05470985  0.86886720     1.20200
Mn160      Mn  0.03953330  0.97721345  0.94964269     1.10100
Cl161      Cl  0.04223039  0.05411648  0.95053713    -0.83000
C162        C  0.12936045  0.95946984  0.85299349     0.99400
C163        C  0.95101901  0.96472861  0.85041241     0.99200
C164        C  0.74789528  0.26729592  0.24161453     0.00500
C165        C  0.82457140  0.26785762  0.15787172     0.00500
C166        C  0.74860531  0.33161025  0.15804574     0.00500
C167        C  0.82279598  0.33964008  0.24764612     0.00500
N168        N  0.08761479  0.50802006  0.37327633    -0.03100
N169        N  0.11578959  0.50193017  0.34375356    -0.55200
N170        N  0.99660464  0.47478875  0.40477998    -0.02800
N171        N  0.97092871  0.44517824  0.39646443    -0.57400
N172        N  0.99446562  0.50272555  0.37503772    -0.02400
N173        N  0.96727557  0.49254492  0.34588837    -0.55200
N174        N  0.08972512  0.48012361  0.40302393    -0.02100
N175        N  0.11939168  0.45446522  0.39430284    -0.57700
C176        C  0.13555231  0.46877066  0.35763074     0.99100
C177        C  0.95261875  0.45685582  0.35996798     0.98800
N178        N  0.99719522  0.50326263  0.53618110    -0.03300
N179        N  0.97150841  0.49331745  0.56692907    -0.55800
N180        N  0.09120812  0.47982695  0.50451073    -0.01400
N181        N  0.12029492  0.45350116  0.51291013    -0.57100
N182        N  0.08996452  0.50801231  0.53422875    -0.03300
N183        N  0.11812162  0.50154486  0.56334744    -0.56100
N184        N  0.99822430  0.47500831  0.50648024    -0.01100
N185        N  0.97322118  0.44530274  0.51646550    -0.57100
Mn186      Mn  0.04397659  0.47644409  0.45461922     1.18400
C187        C  0.95656073  0.45740367  0.55393304     1.01100
C188        C  0.13701548  0.46782669  0.54932615     1.00600
N189        N  0.98980992  0.59897055  0.37567318    -0.03300
N190        N  0.96122369  0.60602924  0.34710471    -0.59700
N191        N  0.08260577  0.63112445  0.40305254    -0.02100
N192        N  0.10863280  0.66018054  0.39384241    -0.60300
N193        N  0.08302629  0.60326229  0.37296278    -0.02900
N194        N  0.10941459  0.61282420  0.34268429    -0.59900
N195        N  0.98945815  0.62716186  0.40542987    -0.01700
N196        N  0.96060029  0.65390868  0.39774775    -0.60600
Mn197      Mn  0.03857831  0.55320433  0.37317101     1.10700
C198        C  0.94302739  0.64002338  0.36163930     1.02400
C199        C  0.12535434  0.64812724  0.35639711     1.02400
N200        N  0.08564771  0.60304342  0.53437256    -0.02900
N201        N  0.11298603  0.61254978  0.56352474    -0.58200
N202        N  0.99145362  0.62711120  0.50632317    -0.02200
N203        N  0.96364282  0.65443718  0.51590401    -0.55000
N204        N  0.99281818  0.59911084  0.53599784    -0.03500
N205        N  0.96598897  0.60689249  0.56644387    -0.57800
N206        N  0.08425054  0.63085587  0.50449965    -0.02500
N207        N  0.11057336  0.65985727  0.51273678    -0.55000
Mn208      Mn  0.04129629  0.55335919  0.53612920     1.20200
Mn209      Mn  0.03697409  0.62995854  0.45482806     1.10100
Cl210      Cl  0.04011860  0.55321368  0.45467591    -0.83000
C211        C  0.12846773  0.64775296  0.54926951     0.99400
C212        C  0.94778246  0.64110313  0.55305633     0.99200
C213        C  0.85387850  0.36233298  0.27216052    -0.15500
C214        C  0.87704287  0.38338832  0.29233403     0.08600
C215        C  0.90285861  0.40945641  0.31599140     0.10400
C216        C  0.92494169  0.43163916  0.33611155    -0.16400
C217        C  0.77348295  0.36134221  0.18795017    -0.13400
C218        C  0.80153545  0.36971314  0.21809109    -0.28600
H219        H  0.77396096  0.33007891  0.19024037     0.15600
H220        H  0.80782601  0.40162089  0.22263735     0.16200
C221        C  0.80239924  0.28532544  0.11953380    -0.13400
C222        C  0.77202033  0.31284610  0.11935553    -0.28600
H223        H  0.81300414  0.27607331  0.08793763     0.15600
H224        H  0.76240733  0.32163260  0.08739554     0.16200
C225        C  0.84493785  0.30227857  0.18216151    -0.13400
C226        C  0.84424576  0.30507436  0.22496558    -0.28600
H227        H  0.84665052  0.33054956  0.16475068     0.15600
H228        H  0.85059516  0.27839170  0.24383088     0.16200
C229        C  0.71563014  0.27583778  0.20774218    -0.13400
C230        C  0.71560263  0.30115335  0.17420843    -0.28600
H231        H  0.68768743  0.25821111  0.20982439     0.15600
H232        H  0.68868762  0.29819750  0.15411353     0.16200
C233        C  0.75597398  0.30387291  0.27059478    -0.13400
C234        C  0.79043399  0.32501961  0.27895138    -0.28600
H235        H  0.73152898  0.30994502  0.29338733     0.15600
H236        H  0.78900256  0.34238258  0.30856190     0.16200
C237        C  0.79484646  0.24068835  0.18263956    -0.13400
C238        C  0.78540197  0.24500296  0.22440426    -0.28600
H239        H  0.79746119  0.20918745  0.17286354     0.15600
H240        H  0.79340815  0.21833746  0.24291005     0.16200
C241        C  0.92792624  0.17260864  0.07518988    -0.15500
C242        C  0.90652059  0.19402310  0.09717728     0.08600
C243        C  0.88114052  0.21981203  0.12187845     0.10400
C244        C  0.85752022  0.24185339  0.14042793    -0.16400
C245        C  0.92332082  0.94116734  0.82455739    -0.15500
C246        C  0.90131597  0.91949480  0.80362081     0.08600
C247        C  0.87601978  0.89244906  0.78040976     0.10400
C248        C  0.85411809  0.86844839  0.76236121    -0.16400
C249        C  0.77782952  0.86009121  0.68142892    -0.13400
C250        C  0.79127364  0.86282919  0.72225647    -0.28600
H251        H  0.77747704  0.88941604  0.66571914     0.15600
H252        H  0.79019207  0.89381423  0.73407113     0.16200
C253        C  0.79121361  0.77382634  0.62871735    -0.13400
C254        C  0.76200882  0.80305815  0.62798963    -0.28600
H255        H  0.79411027  0.75715085  0.59877122     0.15600
H256        H  0.74641257  0.80479530  0.59737081     0.16200
C257        C  0.85314566  0.81256757  0.71473065    -0.13400
C258        C  0.84530534  0.80381186  0.67378751    -0.28600
H259        H  0.87155301  0.79080781  0.73199920     0.15600
H260        H  0.84007130  0.82902905  0.65256143     0.16200
C261        C  0.85365257  0.73739346  0.64257402    -0.15500
C262        C  0.87547783  0.71394683  0.62394187     0.08600
C263        C  0.89945582  0.68662902  0.60015613     0.10400
C264        C  0.92045598  0.66456554  0.57883252    -0.16400
C265        C  0.72808076  0.80244875  0.73537135    -0.13400
C266        C  0.71984598  0.80634932  0.69387035    -0.28600
H267        H  0.73137782  0.82998105  0.75380140     0.15600
H268        H  0.70342898  0.78163615  0.67886735     0.16200
C269        C  0.76935939  0.74199117  0.71292279    -0.13400
C270        C  0.80844162  0.74327513  0.70255404    -0.28600
H271        H  0.74835652  0.73357962  0.68779203     0.15600
H272        H  0.83003077  0.73907987  0.72827826     0.16200
C273        C  0.78379395  0.78089630  0.78307541    -0.13400
C274        C  0.81082380  0.81207018  0.78082995    -0.28600
H275        H  0.78197890  0.76695231  0.81449391     0.15600
H276        H  0.82602166  0.81763598  0.81117260     0.16200
C277        C  0.92032936  0.94107523  0.07066112    -0.15500
C278        C  0.89893518  0.91936338  0.09191023     0.08600
C279        C  0.87515179  0.89277913  0.11684261     0.10400
C280        C  0.85469899  0.86978659  0.13768675    -0.16400
C281        C  0.76797352  0.79859693  0.12305043    -0.13400
C282        C  0.80042058  0.82451517  0.12501968    -0.28600
H283        H  0.75491236  0.79385419  0.09150346     0.15600
H284        H  0.80759837  0.83542985  0.09300543     0.16200
C285        C  0.79717847  0.74295431  0.21379873    -0.13400
C286        C  0.77796040  0.77004060  0.19117753    -0.28600
H287        H  0.79167757  0.71074295  0.21123142     0.15600
H288        H  0.78600090  0.79892215  0.19847806     0.16200
C289        C  0.86074807  0.78412708  0.21580072    -0.13400
C290        C  0.85977231  0.81204179  0.18310259    -0.28600
H291        H  0.89121031  0.77226010  0.22142195     0.15600
H292        H  0.89045810  0.81548408  0.17017609     0.16200
C293        C  0.91311212  0.66224015  0.33789057    -0.15500
C294        C  0.89031176  0.68244219  0.31666022     0.08600
C295        C  0.86607908  0.70788728  0.29094961     0.10400
C296        C  0.84752306  0.73149478  0.26905968    -0.16400
C297        C  0.71340971  0.82502574  0.21385284    -0.13400
C298        C  0.71366387  0.80172920  0.17771449    -0.28600
H299        H  0.68352145  0.83850571  0.21920370     0.15600
H300        H  0.68558182  0.80170371  0.15938797     0.16200
C301        C  0.80673347  0.87048970  0.19509224    -0.13400
C302        C  0.77769538  0.86902686  0.22675469    -0.28600
H303        H  0.81884393  0.90118913  0.19380576     0.15600
H304        H  0.77499099  0.89874563  0.24183859     0.16200
C305        C  0.76672839  0.80387418  0.27351310    -0.13400
C306        C  0.80702895  0.79368293  0.27470435    -0.28600
H307        H  0.75143054  0.79880687  0.30402311     0.15600
H308        H  0.81821071  0.79020700  0.30721481     0.16200
C309        C  0.22610445  0.86700241  0.76097790    -0.15500
C310        C  0.20250019  0.88723371  0.78149752     0.08600
C311        C  0.17717395  0.91256164  0.80638556     0.10400
C312        C  0.15593344  0.93442194  0.82780682    -0.16400
C313        C  0.24037800  0.79812775  0.67958880    -0.13400
C314        C  0.23927130  0.80776400  0.72094469    -0.28600
H315        H  0.23615837  0.82138754  0.65568703     0.15600
H316        H  0.23235098  0.78476977  0.74445639     0.16200
C317        C  0.15611616  0.67239592  0.57327325    -0.15500
C318        C  0.17795834  0.69420003  0.59381118     0.08600
C319        C  0.20350027  0.71955663  0.61811429     0.10400
C320        C  0.22694013  0.73937115  0.63901468    -0.16400
C321        C  0.31676176  0.80143694  0.62612917    -0.13400
C322        C  0.29327719  0.76785893  0.63210798    -0.28600
H323        H  0.33418697  0.80055455  0.59645533     0.15600
H324        H  0.29663923  0.74518043  0.60702720     0.16200
C325        C  0.29671871  0.86708848  0.66659788    -0.13400
C326        C  0.27353568  0.87444178  0.70216110    -0.28600
H327        H  0.29467341  0.89047132  0.64230690     0.15600
H328        H  0.25789632  0.90343142  0.70106846     0.16200
C329        C  0.27003354  0.72977797  0.70065688    -0.13400
C330        C  0.29127029  0.73575373  0.73766953    -0.28600
H331        H  0.25294934  0.70163665  0.70068171     0.15600
H332        H  0.28667500  0.71236821  0.76156929     0.16200
C333        C  0.31150557  0.80044756  0.77943986    -0.13400
C334        C  0.29039429  0.83529449  0.77178067    -0.28600
H335        H  0.32686670  0.80060067  0.81022478     0.15600
H336        H  0.29348709  0.85800258  0.79683393     0.16200
C337        C  0.34506211  0.78057608  0.70876712    -0.13400
C338        C  0.34634778  0.81954258  0.69894369    -0.28600
H339        H  0.35087277  0.75797160  0.68429258     0.15600
H340        H  0.35180073  0.84184101  0.72375258     0.16200
C341        C  0.92911514  0.17503682  0.83022848    -0.15500
C342        C  0.90774784  0.19749552  0.80989494     0.08600
C343        C  0.88274231  0.22423756  0.78655725     0.10400
C344        C  0.86000870  0.24625926  0.76729310    -0.16400
C345        C  0.77148364  0.24029266  0.68948625    -0.13400
C346        C  0.79954509  0.23985220  0.72265705    -0.28600
H347        H  0.75979052  0.20994615  0.68395771     0.15600
H348        H  0.80367943  0.20930804  0.73476004     0.16200
C349        C  0.80015666  0.32397161  0.62104864    -0.13400
C350        C  0.77714776  0.28936988  0.62305397    -0.28600
H351        H  0.81249342  0.33071050  0.58955297     0.15600
H352        H  0.77353029  0.27464727  0.59210945     0.16200
C353        C  0.82542192  0.31911761  0.69165215    -0.13400
C354        C  0.85134853  0.29693636  0.71261068    -0.28600
H355        H  0.79690575  0.31212339  0.69940656     0.15600
H356        H  0.88399363  0.29785623  0.70735342     0.16200
C357        C  0.85623124  0.36788304  0.64385236    -0.15500
C358        C  0.88249827  0.38714681  0.62624337     0.08600
C359        C  0.90916349  0.41140214  0.60180976     0.10400
C360        C  0.93052580  0.43250707  0.57981442    -0.16400
C361        C  0.73046925  0.31054826  0.72538481    -0.13400
C362        C  0.72789350  0.30637918  0.68290846    -0.28600
H363        H  0.73058635  0.28346143  0.74480719     0.15600
H364        H  0.72189294  0.33306088  0.66387527     0.16200
C365        C  0.78505944  0.33340558  0.77667608    -0.13400
C366        C  0.80861162  0.29879617  0.77949906    -0.28600
H367        H  0.78479947  0.35056856  0.80645890     0.15600
H368        H  0.82140667  0.29500082  0.81130214     0.16200
C369        C  0.76479920  0.38081980  0.71234093    -0.13400
C370        C  0.78902116  0.38053585  0.67599209    -0.28600
H371        H  0.74943110  0.40968536  0.71672304     0.15600
H372        H  0.78787889  0.40795558  0.65703160     0.16200
C373        C  0.65960657  0.16914970  0.33852768    -0.15500
C374        C  0.68164193  0.19082515  0.31783853     0.08600
C375        C  0.70738053  0.21586966  0.29304544     0.10400
C376        C  0.72750822  0.23804543  0.27080014    -0.16400
C377        C  0.65017739  0.93392707  0.58183310    -0.15500
C378        C  0.66878575  0.90865248  0.60132324     0.08600
C379        C  0.69252385  0.88032739  0.62380828     0.10400
C380        C  0.71494155  0.85745680  0.64224430    -0.16400
C381        C  0.65913692  0.93088556  0.34874440    -0.15500
C382        C  0.67981800  0.90762801  0.32845878     0.08600
C383        C  0.70403315  0.88226681  0.30250218     0.10400
C384        C  0.72405718  0.86189795  0.27828918    -0.16400
C385        C  0.43187725  0.93003955  0.57784779    -0.15500
C386        C  0.41279582  0.90521874  0.59743062     0.08600
C387        C  0.38766916  0.87815553  0.61988801     0.10400
C388        C  0.36316383  0.85723337  0.63794941    -0.16400
C389        C  0.71714895  0.25069206  0.63782686    -0.15500
C390        C  0.69219467  0.23150832  0.61841342     0.08600
C391        C  0.66564124  0.20675076  0.59490214     0.10400
C392        C  0.64546891  0.18307154  0.57497483    -0.16400
C393        C  0.42953803  0.93002739  0.34134709    -0.15500
C394        C  0.40732387  0.90778746  0.32164105     0.08600
C395        C  0.37918438  0.88365593  0.29892968     0.10400
C396        C  0.35397006  0.86426442  0.27979932    -0.16400
C397        C  0.28751508  0.77187869  0.27693694    -0.13400
C398        C  0.30875615  0.80637647  0.28605351    -0.28600
H399        H  0.29059381  0.74844441  0.30104229     0.15600
H400        H  0.32424593  0.80518836  0.31673237     0.16200
C401        C  0.22309770  0.74039460  0.26512711    -0.15500
C402        C  0.19961555  0.71972828  0.28530431     0.08600
C403        C  0.17413243  0.69431539  0.31001143     0.10400
C404        C  0.15251892  0.67273734  0.33131981    -0.16400
C405        C  0.23742248  0.81226424  0.18658900    -0.13400
C406        C  0.23625352  0.80121097  0.22752440    -0.28600
H407        H  0.23325048  0.78982850  0.16164638     0.15600
H408        H  0.22943898  0.82343289  0.25210246     0.16200
C409        C  0.26669236  0.87977515  0.21073825    -0.13400
C410        C  0.28844475  0.87256591  0.24724239    -0.28600
H411        H  0.24933706  0.90777365  0.21213018     0.15600
H412        H  0.28398379  0.89511009  0.27225711     0.16200
C413        C  0.15388165  0.93351631  0.07433486    -0.15500
C414        C  0.17515506  0.91341514  0.09751685     0.08600
C415        C  0.20046611  0.89062189  0.12508763     0.10400
C416        C  0.22373869  0.87214951  0.14771247    -0.16400
C417        C  0.34348251  0.78967140  0.20467934    -0.13400
C418        C  0.34213421  0.82829883  0.21626782    -0.28600
H419        H  0.34881042  0.76652391  0.22845662     0.15600
H420        H  0.34820270  0.85166833  0.19290660     0.16200
C421        C  0.29391813  0.74349633  0.17028446    -0.13400
C422        C  0.27052880  0.73514880  0.20548107    -0.28600
H423        H  0.29200342  0.72086498  0.14502828     0.15600
H424        H  0.25481867  0.70632916  0.20300501     0.16200
C425        C  0.29046701  0.84409409  0.14078925    -0.13400
C426        C  0.31380497  0.81056193  0.13294383    -0.28600
H427        H  0.29439885  0.86800103  0.11733713     0.15600
H428        H  0.33139150  0.81268758  0.10346797     0.16200
C429        C  0.72221706  0.36216394  0.13742962    -0.15500
C430        C  0.69931527  0.38540882  0.12017623     0.08600
C431        C  0.67218951  0.41159152  0.09907832     0.10400
C432        C  0.65011977  0.43424704  0.07999377    -0.16400
C433        C  0.65568075  0.67031556  0.83936704    -0.15500
C434        C  0.67619176  0.69264825  0.81805796     0.08600
C435        C  0.70119327  0.71794001  0.79319569     0.10400
C436        C  0.72353771  0.73954071  0.77304988    -0.16400
C437        C  0.66311859  0.66514897  0.08118876    -0.15500
C438        C  0.68563287  0.68560023  0.10235828     0.08600
C439        C  0.71113437  0.71148880  0.12587762     0.10400
C440        C  0.73027612  0.73770874  0.14328189    -0.16400
C441        C  0.42808474  0.67772123  0.83783924    -0.15500
C442        C  0.40701212  0.69918390  0.81607734     0.08600
C443        C  0.38049261  0.72293947  0.79113277     0.10400
C444        C  0.35633129  0.74261594  0.77102285    -0.16400
C445        C  0.64712518  0.43076329  0.83942890    -0.15500
C446        C  0.66800795  0.40812744  0.81840459     0.08600
C447        C  0.69464131  0.38409089  0.79339200     0.10400
C448        C  0.71914905  0.36595447  0.77175596    -0.16400
C449        C  0.43411677  0.68626916  0.07942980    -0.15500
C450        C  0.41349787  0.70982944  0.09959678     0.08600
C451        C  0.38628712  0.73485972  0.12279330     0.10400
C452        C  0.36068911  0.75424241  0.14166558    -0.16400
C453        C  0.35001768  0.37348674  0.77548697    -0.15500
C454        C  0.37030185  0.39663237  0.79617188     0.08600
C455        C  0.39503484  0.42194228  0.82136121     0.10400
C456        C  0.41633225  0.44352494  0.84272464    -0.16400
C457        C  0.27235098  0.36247314  0.70325073    -0.13400
C458        C  0.31170040  0.36251583  0.71306209    -0.28600
H459        H  0.24969727  0.36637109  0.72825096     0.15600
H460        H  0.33416294  0.36968553  0.68875800     0.16200
C461        C  0.16665657  0.44632794  0.57398906    -0.15500
C462        C  0.18932363  0.42697754  0.59613677     0.08600
C463        C  0.21394553  0.40210285  0.62189270     0.10400
C464        C  0.23393638  0.37822543  0.64190270    -0.16400
C465        C  0.25920152  0.30478206  0.77491734    -0.13400
C466        C  0.29330076  0.32721775  0.78282644    -0.28600
H467        H  0.23633194  0.30653704  0.80014985     0.15600
H468        H  0.29252504  0.34213267  0.81390902     0.16200
C469        C  0.22040153  0.28749931  0.70508036    -0.13400
C470        C  0.22648746  0.31165865  0.67017650    -0.28600
H471        H  0.19191450  0.27083216  0.70370398     0.15600
H472        H  0.20264572  0.30934900  0.64620815     0.16200
C473        C  0.23009566  0.23949441  0.76307377    -0.15500
C474        C  0.21119488  0.21476969  0.78349277     0.08600
C475        C  0.18693634  0.18827605  0.80842821     0.10400
C476        C  0.16470793  0.16725022  0.82976490    -0.16400
C477        C  0.36630818  0.29021341  0.70282899    -0.13400
C478        C  0.35928271  0.31022633  0.74042511    -0.28600
H479        H  0.39542139  0.27445677  0.70224198     0.15600
H480        H  0.38303054  0.30606571  0.76421187     0.16200
C481        C  0.32683035  0.31285447  0.63530770    -0.13400
C482        C  0.29186692  0.33457713  0.62979918    -0.28600
H483        H  0.34968895  0.31771959  0.61055465     0.15600
H484        H  0.29208232  0.35222013  0.60048389     0.16200
C485        C  0.29859663  0.25861069  0.68148719    -0.13400
C486        C  0.28913814  0.25611739  0.72283548    -0.28600
H487        H  0.27528462  0.25381810  0.65754879     0.15600
H488        H  0.31272381  0.24984082  0.74605304     0.16200
C489        C  0.42209147  0.17473075  0.57395013    -0.15500
C490        C  0.40137939  0.19805145  0.59409627     0.08600
C491        C  0.37726455  0.22463494  0.61872282     0.10400
C492        C  0.35781134  0.24796959  0.64026072    -0.16400
C493        C  0.16551057  0.44734888  0.33290650    -0.15500
C494        C  0.18804091  0.42592939  0.31246913     0.08600
C495        C  0.21136883  0.39681817  0.29020781     0.10400
C496        C  0.22854813  0.36857525  0.27369288    -0.16400
C497        C  0.21457880  0.27778954  0.20446362    -0.13400
C498        C  0.21244139  0.30391094  0.23863192    -0.28600
H499        H  0.18502744  0.26370862  0.19929333     0.15600
H500        H  0.18331761  0.30528532  0.25525107     0.16200
C501        C  0.22739487  0.23413128  0.14526790    -0.15500
C502        C  0.20875541  0.21117723  0.12243732     0.08600
C503        C  0.18559026  0.18528707  0.09587248     0.10400
C504        C  0.16406567  0.16440645  0.07372833    -0.16400
C505        C  0.30045676  0.28409361  0.29291074    -0.13400
C506        C  0.26587293  0.30722532  0.29376347    -0.28600
H507        H  0.30713614  0.27212850  0.32453641     0.15600
H508        H  0.24997878  0.30872695  0.32431218     0.16200
C509        C  0.28297499  0.23608354  0.19427471    -0.13400
C510        C  0.31268595  0.23880595  0.22493451    -0.28600
H511        H  0.28331810  0.20553202  0.18090389     0.15600
H512        H  0.32815737  0.20966075  0.22735075     0.16200
C513        C  0.36216996  0.24760545  0.28017324    -0.15500
C514        C  0.38567601  0.22630176  0.29935204     0.08600
C515        C  0.41089899  0.19893652  0.32158881     0.10400
C516        C  0.43067997  0.17406928  0.34050761    -0.16400
C517        C  0.35536468  0.30520828  0.23465261    -0.13400
C518        C  0.35495272  0.31501907  0.19217055    -0.28600
H519        H  0.38494484  0.31058682  0.24924774     0.15600
H520        H  0.38542020  0.31892610  0.17904373     0.16200
C521        C  0.27531552  0.33628204  0.22477464    -0.13400
C522        C  0.29563703  0.36398029  0.20399163    -0.28600
H523        H  0.28334789  0.30757863  0.21661983     0.15600
H524        H  0.29216670  0.39613970  0.20971043     0.16200
C525        C  0.29733832  0.32277238  0.13740667    -0.13400
C526        C  0.26672227  0.29434535  0.13975240    -0.28600
H527        H  0.30100838  0.33515618  0.10539101     0.15600
H528        H  0.25265225  0.29144704  0.10833619     0.16200
C529        C  0.34717115  0.37674105  0.14956489    -0.15500
C530        C  0.36793023  0.40047102  0.12992370     0.08600
C531        C  0.39342947  0.42627079  0.10568059     0.10400
C532        C  0.41534752  0.44779958  0.08464919    -0.16400
loop_ 
_geom_bond_atom_site_label_1 
_geom_bond_atom_site_label_2 
_geom_bond_distance 
_geom_bond_site_symmetry_2 
_ccdc_geom_bond_type 
C1          C518   1.558       .  S
C1          C522   1.522       .  S
C1          C525   1.549       .  S
C1          C529   1.486       .  S
C2          C505   1.569       .  S
C2          C510   1.561       .  S
C2          C517   1.563       .  S
C2          C513   1.494       .  S
C3          C497   1.581       .  S
C3          C509   1.561       .  S
C3          C526   1.579       .  S
C3          C501   1.500       .  S
C4          C498   1.522       .  S
C4          C506   1.520       .  S
C4          C521   1.432       .  S
C4          C496   1.473       .  S
C5          C477   1.549       .  S
C5          C481   1.532       .  S
C5          C485   1.496       .  S
C5          C492   1.476       .  S
C6          C465   1.534       .  S
C6          C469   1.552       .  S
C6          C486   1.497       .  S
C6          C473   1.487       .  S
C7          C457   1.494       .  S
C7          C470   1.536       .  S
C7          C482   1.551       .  S
C7          C464   1.478       .  S
C8          C458   1.495       .  S
C8          C466   1.550       .  S
C8          C478   1.532       .  S
C8          C453   1.477       .  S
N9           N10   1.320       .  A
N9           N15   1.317       .  A
N9          Mn38   2.199       .  S
N10          C17   1.350       .  A
N11          N13   1.317       .  A
N11          N12   1.321       .  A
N11         Mn27   2.206       .  S
N12          C18   1.351       .  A
N13          N14   1.321       .  A
N13         Mn38   2.203       .  S
N14          C18   1.351       .  A
N15          N16   1.321       .  A
N15         Mn27   2.207       .  S
N16          C17   1.351       .  A
C17         C456   1.434       .  S
C18         C441   1.438       .  S
N19          N25   1.317       .  A
N19          N20   1.322       .  A
N19         Mn49   2.209       .  S
N20          C28   1.352       .  A
N21          N22   1.322       .  A
N21          N23   1.317       .  A
N21         Mn27   2.209   1_554  S
N22          C29   1.351       .  A
N23          N24   1.323       .  A
N23         Mn49   2.212       .  S
N24          C29   1.353       .  A
N25          N26   1.321       .  A
N25         Mn27   2.208   1_554  S
N26          C28   1.351       .  A
Mn27        Cl51   2.546       .  S
C28         C449   1.440       .  S
C29         C532   1.444       .  S
N30          N31   1.320       .  A
N30          N36   1.316       .  A
N30         Mn38   2.197       .  S
N31          C39   1.350       .  A
N32          N34   1.316       .  A
N32          N33   1.321       .  A
N32         Mn50   2.202       .  S
N33          C40   1.351       .  A
N34          N35   1.322       .  A
N34         Mn38   2.209       .  S
N35          C40   1.352       .  A
N36          N37   1.321       .  A
N36         Mn50   2.204       .  S
N37          C39   1.351       .  A
Mn38        Cl51   2.551       .  S
C39         C433   1.434       .  S
C40         C445   1.440       .  S
N41          N42   1.322       .  A
N41          N47   1.318       .  A
N41         Mn49   2.212       .  S
N42          C52   1.352       .  A
N43          N44   1.320       .  A
N43          N45   1.317       .  A
N43         Mn50   2.198   1_554  S
N44          C53   1.350       .  A
N45          N46   1.320       .  A
N45         Mn49   2.200       .  S
N46          C53   1.350       .  A
N47          N48   1.319       .  A
N47         Mn50   2.198   1_554  S
N48          C52   1.349       .  A
Mn49        Cl51   2.553   1_554  S
Mn50        Cl51   2.545       .  S
C52         C432   1.435       .  S
C53         C437   1.433       .  S
C54         C417   1.493       .  S
C54         C421   1.534       .  S
C54         C426   1.551       .  S
C54         C452   1.482       .  S
C55         C405   1.498       .  S
C55         C409   1.553       .  S
C55         C425   1.536       .  S
C55         C416   1.486       .  S
C56         C397   1.536       .  S
C56         C406   1.498       .  S
C56         C422   1.552       .  S
C56         C401   1.485       .  S
C57         C398   1.551       .  S
C57         C410   1.535       .  S
C57         C418   1.492       .  S
C57         C396   1.482       .  S
N58          N59   1.320       .  A
N58          N64   1.316       .  A
N58         Mn87   2.197       .  S
N59          C66   1.350       .  A
N60          N62   1.316       .  A
N60          N61   1.321   1_545  A
N60         Mn76   2.208       .  S
N61          C67   1.351       .  A
N62          N63   1.320   1_545  A
N62         Mn87   2.195       .  S
N63          C67   1.349       .  A
N64          N65   1.320       .  A
N64         Mn76   2.200       .  S
N65          C66   1.350       .  A
C66         C489   1.434       .  S
C67         C385   1.433       .  S
N68          N74   1.317       .  A
N68          N69   1.323   1_545  A
N68         Mn98   2.216       .  S
N69          C77   1.353       .  A
N70          N71   1.321       .  A
N70          N72   1.318       .  A
N70         Mn76   2.206       .  S
N71          C78   1.351       .  A
N72          N73   1.322       .  A
N72         Mn98   2.212       .  S
N73          C78   1.352       .  A
N74          N75   1.320   1_545  A
N74         Mn76   2.199       .  S
N75          C77   1.350       .  A
Mn76       Cl100   2.545       .  S
C77         C393   1.440       .  S
C78         C516   1.439       .  S
N79          N80   1.321   1_545  A
N79          N85   1.316       .  A
N79         Mn87   2.198       .  S
N80          C88   1.350       .  A
N81          N83   1.316       .  A
N81          N82   1.320       .  A
N81         Mn99   2.201       .  S
N82          C89   1.350       .  A
N83          N84   1.320       .  A
N83         Mn87   2.195       .  S
N84          C89   1.350       .  A
N85          N86   1.321   1_545  A
N85         Mn99   2.205       .  S
N86          C88   1.351       .  A
Mn87       Cl100   2.551       .  S
C88         C377   1.436       .  S
C89         C392   1.431       .  S
N90          N91   1.323       .  A
N90          N96   1.317       .  A
N90         Mn98   2.217       .  S
N91         C101   1.354       .  A
N92          N93   1.320   1_545  A
N92          N94   1.317       .  A
N92         Mn99   2.200       .  S
N93         C102   1.350       .  A
N94          N95   1.321   1_545  A
N94         Mn98   2.208       .  S
N95         C102   1.351       .  A
N96          N97   1.321       .  A
N96         Mn99   2.202       .  S
N97         C101   1.350       .  A
Mn98       Cl100   2.553       .  S
Mn99       Cl100   2.545       .  S
C101        C373   1.442       .  S
C102        C381   1.434       .  S
C103        C361   1.521       .  S
C103        C365   1.560       .  S
C103        C369   1.582       .  S
C103        C448   1.481       .  S
C104        C349   1.537       .  S
C104        C353   1.441       .  S
C104        C370   1.546       .  S
C104        C357   1.475       .  S
C105        C345   1.581       .  S
C105        C350   1.560       .  S
C105        C362   1.519       .  S
C105        C389   1.475       .  S
C106        C346   1.574       .  S
C106        C354   1.525       .  S
C106        C366   1.569       .  S
C106        C344   1.483       .  S
C107        C330   1.532       .  S
C107        C333   1.550       .  S
C107        C337   1.493       .  S
C107        C444   1.479       .  S
C108        C321   1.549       .  S
C108        C325   1.532       .  S
C108        C338   1.492       .  S
C108        C388   1.475       .  S
C109        C313   1.496       .  S
C109        C322   1.535       .  S
C109        C329   1.552       .  S
C109        C320   1.478       .  S
C110        C314   1.496       .  S
C110        C326   1.550       .  S
C110        C334   1.534       .  S
C110        C309   1.478       .  S
C111        C297   1.564       .  S
C111        C302   1.558       .  S
C111        C305   1.562       .  S
C111        C384   1.489       .  S
C112        C285   1.523       .  S
C112        C289   1.550       .  S
C112        C306   1.556       .  S
C112        C296   1.483       .  S
C113        C281   1.518       .  S
C113        C286   1.433       .  S
C113        C298   1.520       .  S
C113        C440   1.468       .  S
C114        C282   1.582       .  S
C114        C290   1.579       .  S
C114        C301   1.563       .  S
C114        C280   1.496       .  S
C115        C265   1.516       .  S
C115        C269   1.531       .  S
C115        C273   1.537       .  S
C115        C436   1.471       .  S
C116        C253   1.537       .  S
C116        C258   1.520       .  S
C116        C270   1.530       .  S
C116        C261   1.469       .  S
C117        C249   1.548       .  S
C117        C254   1.541       .  S
C117        C266   1.516       .  S
C117        C380   1.480       .  S
C118        C250   1.547       .  S
C118        C257   1.521       .  S
C118        C274   1.546       .  S
C118        C248   1.492       .  S
N119        N120   1.323       .  A
N119        N125   1.317       .  A
N119       Mn148   2.215       .  S
N120        C127   1.352       .  A
N121        N123   1.317       .  A
N121        N122   1.323       .  A
N121       Mn137   2.216   1_654  S
N122        C128   1.353       .  A
N123        N124   1.322       .  A
N123       Mn148   2.205   1_655  S
N124        C128   1.351       .  A
N125        N126   1.322       .  A
N125       Mn137   2.208   1_554  S
N126        C127   1.351       .  A
C127        C504   1.442       .  S
C128        C241   1.443       .  S
N129        N135   1.318       .  A
N129        N130   1.322       .  A
N129       Mn159   2.211   1_655  S
N130        C138   1.352       .  A
N131        N132   1.323       .  A
N131        N133   1.318       .  A
N131       Mn137   2.213       .  S
N132        C139   1.352       .  A
N133        N134   1.323       .  A
N133       Mn159   2.217       .  S
N134        C139   1.353       .  A
N135        N136   1.321       .  A
N135       Mn137   2.206   1_655  S
N136        C138   1.350       .  A
Mn137      Cl161   2.552       .  S
C138        C341   1.439       .  S
C139        C476   1.446       .  S
N140        N141   1.322   1_545  A
N140        N146   1.318   1_545  A
N140       Mn148   2.212   1_655  S
N141        C149   1.352       .  A
N142        N144   1.317   1_565  A
N142        N143   1.324       .  A
N142       Mn160   2.220   1_554  S
N143        C150   1.353       .  A
N144        N145   1.321   1_545  A
N144       Mn148   2.204       .  S
N145        C150   1.350       .  A
N146        N147   1.321       .  A
N146       Mn160   2.203   1_654  S
N147        C149   1.350       .  A
Mn148      Cl161   2.554   1_554  S
C149        C277   1.439       .  S
C150        C413   1.445       .  S
N151        N152   1.321   1_545  A
N151        N157   1.318   1_545  A
N151       Mn159   2.209       .  S
N152        C162   1.351       .  A
N153        N154   1.323       .  A
N153        N155   1.318   1_565  A
N153       Mn160   2.218   1_655  S
N154        C163   1.352       .  A
N155        N156   1.324   1_545  A
N155       Mn159   2.218   1_655  S
N156        C163   1.353       .  A
N157        N158   1.320       .  A
N157       Mn160   2.201       .  S
N158        C162   1.350       .  A
Mn159      Cl161   2.557       .  S
Mn160      Cl161   2.551   1_565  S
C162        C312   1.436       .  S
C163        C245   1.449       .  S
C164        C229   1.530       .  S
C164        C233   1.536       .  S
C164        C238   1.532       .  S
C164        C376   1.493       .  S
C165        C221   1.523       .  S
C165        C225   1.526       .  S
C165        C237   1.540       .  S
C165        C244   1.485       .  S
C166        C217   1.587       .  S
C166        C222   1.559       .  S
C166        C230   1.568       .  S
C166        C429   1.484       .  S
C167        C218   1.533       .  S
C167        C226   1.517       .  S
C167        C234   1.525       .  S
C167        C213   1.485       .  S
N168        N169   1.321       .  A
N168        N174   1.317       .  A
N168       Mn197   2.199       .  S
N169        C176   1.350       .  A
N170        N172   1.318       .  A
N170        N171   1.322       .  A
N170       Mn186   2.210   1_655  S
N171        C177   1.351       .  A
N172        N173   1.323       .  A
N172       Mn197   2.218   1_655  S
N173        C177   1.353       .  A
N174        N175   1.320       .  A
N174       Mn186   2.207       .  S
N175        C176   1.351       .  A
C176        C493   1.436       .  S
C177        C216   1.445       .  S
N178        N184   1.317       .  A
N178        N179   1.321       .  A
N178       Mn208   2.207   1_655  S
N179        C187   1.351       .  A
N180        N181   1.322       .  A
N180        N182   1.316       .  A
N180       Mn186   2.210       .  S
N181        C188   1.352       .  A
N182        N183   1.320       .  A
N182       Mn208   2.194       .  S
N183        C188   1.349       .  A
N184        N185   1.322       .  A
N184       Mn186   2.210   1_655  S
N185        C187   1.352       .  A
Mn186      Cl210   2.548       .  S
C187        C360   1.440       .  S
C188        C461   1.436       .  S
N189        N190   1.321       .  A
N189        N195   1.317       .  A
N189       Mn197   2.207   1_655  S
N190        C198   1.352       .  A
N191        N193   1.317       .  A
N191        N192   1.322       .  A
N191       Mn209   2.205       .  S
N192        C199   1.351       .  A
N193        N194   1.323       .  A
N193       Mn197   2.214       .  S
N194        C199   1.352       .  A
N195        N196   1.321       .  A
N195       Mn209   2.205   1_655  S
N196        C198   1.351       .  A
Mn197      Cl210   2.552       .  S
C198        C293   1.439       .  S
C199        C404   1.443       .  S
N200        N201   1.321       .  A
N200        N206   1.317       .  A
N200       Mn208   2.203       .  S
N201        C211   1.351       .  A
N202        N203   1.319       .  A
N202        N204   1.317       .  A
N202       Mn209   2.198   1_655  S
N203        C212   1.349       .  A
N204        N205   1.321       .  A
N204       Mn208   2.199   1_655  S
N205        C212   1.350       .  A
N206        N207   1.320       .  A
N206       Mn209   2.203       .  S
N207        C211   1.350       .  A
Mn208      Cl210   2.550       .  S
Mn209      Cl210   2.546       .  S
C211        C317   1.436       .  S
C212        C264   1.432       .  S
C213        C214   1.212       .  T
C214        C215   1.421       .  S
C215        C216   1.211       .  T
C217        C218   1.351       .  D
C217        H219   1.039       .  S
C218        H220   1.087       .  S
C221        C222   1.352       .  D
C221        H223   1.090       .  S
C222        H224   1.091       .  S
C225        C226   1.343       .  D
C225        H227   1.088       .  S
C226        H228   1.086       .  S
C229        C230   1.347       .  D
C229        H231   1.092       .  S
C230        H232   1.092       .  S
C233        C234   1.360       .  D
C233        H235   1.091       .  S
C234        H236   1.090       .  S
C237        C238   1.349       .  D
C237        H239   1.090       .  S
C238        H240   1.091       .  S
C241        C242   1.210       .  T
C242        C243   1.419       .  S
C243        C244   1.211       .  T
C245        C246   1.213       .  T
C246        C247   1.424       .  S
C247        C248   1.214       .  T
C249        C250   1.357       .  D
C249        H251   1.091       .  S
C250        H252   1.091       .  S
C253        C254   1.364       .  D
C253        H255   1.090       .  S
C254        H256   1.090       .  S
C257        C258   1.339       .  D
C257        H259   1.088       .  S
C258        H260   1.084       .  S
C261        C262   1.204       .  T
C262        C263   1.409       .  S
C263        C264   1.203       .  T
C265        C266   1.335       .  D
C265        H267   1.084       .  S
C266        H268   1.088       .  S
C269        C270   1.325       .  D
C269        H271   1.085       .  S
C270        H272   1.085       .  S
C273        C274   1.366       .  D
C273        H275   1.090       .  S
C274        H276   1.090       .  S
C277        C278   1.207       .  T
C278        C279   1.415       .  S
C279        C280   1.209       .  T
C281        C282   1.373       .  D
C281        H283   1.089       .  S
C282        H284   1.092       .  S
C285        C286   1.309       .  D
C285        H287   1.086       .  S
C286        H288   1.019       .  S
C289        C290   1.383       .  D
C289        H291   1.091       .  S
C290        H292   1.092       .  S
C293        C294   1.208       .  T
C294        C295   1.415       .  S
C295        C296   1.208       .  T
C297        C298   1.367       .  D
C297        H299   1.091       .  S
C298        H300   1.089       .  S
C301        C302   1.375       .  D
C301        H303   1.094       .  S
C302        H304   1.094       .  S
C305        C306   1.368       .  D
C305        H307   1.091       .  S
C306        H308   1.090       .  S
C309        C310   1.207       .  T
C310        C311   1.412       .  S
C311        C312   1.206       .  T
C313        C314   1.332       .  D
C313        H315   1.086       .  S
C314        H316   1.086       .  S
C317        C318   1.206       .  T
C318        C319   1.412       .  S
C319        C320   1.207       .  T
C321        C322   1.369       .  D
C321        H323   1.090       .  S
C322        H324   1.090       .  S
C325        C326   1.368       .  D
C325        H327   1.090       .  S
C326        H328   1.090       .  S
C329        C330   1.369       .  D
C329        H331   1.090       .  S
C330        H332   1.090       .  S
C333        C334   1.369       .  D
C333        H335   1.090       .  S
C334        H336   1.090       .  S
C337        C338   1.330       .  D
C337        H339   1.086       .  S
C338        H340   1.086       .  S
C341        C342   1.208       .  T
C342        C343   1.415       .  S
C343        C344   1.209       .  T
C345        C346   1.392       .  D
C345        H347   1.091       .  S
C346        H348   1.091       .  S
C349        C350   1.377       .  D
C349        H351   1.089       .  S
C350        H352   1.090       .  S
C353        C354   1.305       .  D
C353        H355   0.996       .  S
C354        H356   1.086       .  S
C357        C358   1.208       .  T
C358        C359   1.415       .  S
C359        C360   1.208       .  T
C361        C362   1.339       .  D
C361        H363   1.086       .  S
C362        H364   1.087       .  S
C365        C366   1.387       .  D
C365        H367   1.090       .  S
C366        H368   1.090       .  S
C369        C370   1.386       .  D
C369        H371   1.089       .  S
C370        H372   1.088       .  S
C373        C374   1.210       .  T
C374        C375   1.418       .  S
C375        C376   1.211       .  T
C377        C378   1.206       .  T
C378        C379   1.412       .  S
C379        C380   1.207       .  T
C381        C382   1.205       .  T
C382        C383   1.410       .  S
C383        C384   1.206       .  T
C385        C386   1.204       .  T
C386        C387   1.409       .  S
C387        C388   1.205       .  T
C389        C390   1.204       .  T
C390        C391   1.407       .  S
C391        C392   1.203       .  T
C393        C394   1.208       .  T
C394        C395   1.416       .  S
C395        C396   1.209       .  T
C397        C398   1.371       .  D
C397        H399   1.090       .  S
C398        H400   1.090       .  S
C401        C402   1.211       .  T
C402        C403   1.419       .  S
C403        C404   1.210       .  T
C405        C406   1.335       .  D
C405        H407   1.085       .  S
C406        H408   1.086       .  S
C409        C410   1.372       .  D
C409        H411   1.089       .  S
C410        H412   1.090       .  S
C413        C414   1.211       .  T
C414        C415   1.420       .  S
C415        C416   1.212       .  T
C417        C418   1.330       .  D
C417        H419   1.086       .  S
C418        H420   1.086       .  S
C421        C422   1.371       .  D
C421        H423   1.090       .  S
C422        H424   1.090       .  S
C425        C426   1.371       .  D
C425        H427   1.090       .  S
C426        H428   1.090       .  S
C429        C430   1.207       .  T
C430        C431   1.411       .  S
C431        C432   1.205       .  T
C433        C434   1.204       .  T
C434        C435   1.410       .  S
C435        C436   1.205       .  T
C437        C438   1.204       .  T
C438        C439   1.409       .  S
C439        C440   1.204       .  T
C441        C442   1.207       .  T
C442        C443   1.414       .  S
C443        C444   1.208       .  T
C445        C446   1.208       .  T
C446        C447   1.415       .  S
C447        C448   1.209       .  T
C449        C450   1.208       .  T
C450        C451   1.416       .  S
C451        C452   1.209       .  T
C453        C454   1.206       .  T
C454        C455   1.411       .  S
C455        C456   1.205       .  T
C457        C458   1.331       .  D
C457        H459   1.086       .  S
C458        H460   1.086       .  S
C461        C462   1.206       .  T
C462        C463   1.412       .  S
C463        C464   1.207       .  T
C465        C466   1.370       .  D
C465        H467   1.090       .  S
C466        H468   1.090       .  S
C469        C470   1.372       .  D
C469        H471   1.090       .  S
C470        H472   1.090       .  S
C473        C474   1.212       .  T
C474        C475   1.421       .  S
C475        C476   1.212       .  T
C477        C478   1.367       .  D
C477        H479   1.090       .  S
C478        H480   1.090       .  S
C481        C482   1.368       .  D
C481        H483   1.090       .  S
C482        H484   1.090       .  S
C485        C486   1.333       .  D
C485        H487   1.086       .  S
C486        H488   1.085       .  S
C489        C490   1.204       .  T
C490        C491   1.410       .  S
C491        C492   1.205       .  T
C493        C494   1.206       .  T
C494        C495   1.412       .  S
C495        C496   1.206       .  T
C497        C498   1.375       .  D
C497        H499   1.091       .  S
C498        H500   1.089       .  S
C501        C502   1.211       .  T
C502        C503   1.418       .  S
C503        C504   1.209       .  T
C505        C506   1.371       .  D
C505        H507   1.091       .  S
C506        H508   1.089       .  S
C509        C510   1.375       .  D
C509        H511   1.094       .  S
C510        H512   1.094       .  S
C513        C514   1.209       .  T
C514        C515   1.415       .  S
C515        C516   1.208       .  T
C517        C518   1.370       .  D
C517        H519   1.091       .  S
C518        H520   1.090       .  S
C521        C522   1.310       .  D
C521        H523   1.018       .  S
C522        H524   1.086       .  S
C525        C526   1.382       .  D
C525        H527   1.091       .  S
C526        H528   1.092       .  S
C529        C530   1.211       .  T
C530        C531   1.419       .  S
C531        C532   1.210       .  T
