geometry optimzed in LAMMPS
_audit_creation_date              2020-11-30 
_audit_creation_method            'lammps2cif' 
_symmetry_space_group_name_H-M    'P1' 
_symmetry_Int_Tables_number       1 
_symmetry_cell_setting            triclinic 
loop_ 
_symmetry_equiv_pos_as_xyz 
  x,y,z 
_cell_length_a                    27.97359682 
_cell_length_b                    27.949068041549666 
_cell_length_c                    27.93869706082722 
_cell_angle_alpha                 89.97659538696422 
_cell_angle_beta                  90.05178734832678 
_cell_angle_gamma                 90.01422637082953 
loop_ 
_atom_site_label 
_atom_site_type_symbol 
_atom_site_fract_x 
_atom_site_fract_y 
_atom_site_fract_z 
_atom_site_charge 
O1          O  0.00403914  0.08069483  0.13547031    -0.80100
O2          O  0.99746015  0.07670071  0.86273413    -0.81700
O3          O  0.07919456  0.13583349  0.99760947    -0.78700
O4          O  0.92259310  0.13666002  0.00334169    -0.77100
O5          O  0.86432726  0.07918213  0.00619433    -0.78900
O6          O  0.13648014  0.07729699  0.99499962    -0.79800
O7          O  0.99900295  0.13533675  0.91945158    -0.81100
O8          O  0.00280119  0.13758181  0.07670884    -0.81400
Eu9        Eu  0.00059298  0.09686436  0.99887139     2.39200
O10         O  0.94979872  0.04849671  0.95213786    -0.88900
O11         O  0.05055196  0.04869274  0.04651471    -0.92500
C12         C  0.00311534  0.12461434  0.12102246     1.02200
C13         C  0.99818283  0.12097275  0.87546956     1.02000
C14         C  0.12296022  0.12142267  0.99553993     1.01900
C15         C  0.87859821  0.12313465  0.00649880     0.99800
H16         H  0.06698952  0.06723234  0.92926350     0.29500
O17         O  0.04753463  0.04746763  0.94986616    -1.01300
H18         H  0.93463146  0.06908235  0.06993289     0.29600
O19         O  0.95375521  0.04883725  0.04948904    -1.03800
O20         O  0.99738422  0.92059054  0.86357280    -0.81100
O21         O  0.00564319  0.92225866  0.13731838    -0.80600
O22         O  0.13446282  0.99862467  0.91811506    -0.79000
O23         O  0.86066674  0.99963729  0.92609862    -0.82400
O24         O  0.86702281  0.00008163  0.08327471    -0.80200
O25         O  0.13954485  0.00330340  0.07429144    -0.78900
O26         O  0.07707573  0.86256877  0.99968283    -0.80400
O27         O  0.92125065  0.86316726  0.00201746    -0.82300
O28         O  0.13572592  0.91952978  0.99727452    -0.79100
O29         O  0.86354414  0.92121327  0.00371012    -0.81700
O30         O  0.07490204  0.00029051  0.86173838    -0.77500
O31         O  0.08363405  0.00629096  0.13392724    -0.77500
O32         O  0.92671457  0.00362532  0.13950310    -0.77200
O33         O  0.91709382  0.99806786  0.86672524    -0.80700
O34         O  0.99820868  0.86374918  0.92238187    -0.80100
O35         O  0.00134194  0.86441702  0.07934156    -0.78400
Eu36       Eu  0.99726023  0.99902631  0.90312328     2.39800
Eu37       Eu  0.00369120  0.00115179  0.09751778     2.39600
Eu38       Eu  0.09719149  0.99886892  0.99741604     2.38400
Eu39       Eu  0.90306855  0.00019971  0.00320454     2.39900
Eu40       Eu  0.99950643  0.90319568  0.00098939     2.39800
O41         O  0.95292141  0.95213449  0.05117018    -0.92800
O42         O  0.04715673  0.95032824  0.95030754    -0.91700
C43         C  0.99731629  0.87672482  0.87807198     1.02300
C44         C  0.00429098  0.87819993  0.12325363     1.01100
C45         C  0.11927535  0.00023053  0.87455724     1.00500
C46         C  0.87342593  0.99768188  0.88174293     1.02500
C47         C  0.88238645  0.00252126  0.12676476     1.01400
C48         C  0.12719784  0.00687133  0.11863410     1.00200
C49         C  0.12125362  0.87562259  0.99859229     1.00300
C50         C  0.87724672  0.87706978  0.00226589     1.02900
H51         H  0.07075437  0.93162385  0.06785417     0.30300
O52         O  0.05019855  0.95129764  0.04824587    -1.05000
H53         H  0.92937971  0.93112773  0.93411963     0.32300
O54         O  0.94979402  0.95123369  0.95338975    -1.07500
O55         O  0.99783360  0.42092969  0.36396329    -0.80100
O56         O  0.99913599  0.42329048  0.63665777    -0.81700
O57         O  0.07972655  0.36554478  0.49718673    -0.78700
O58         O  0.92321655  0.36315769  0.50231970    -0.77100
O59         O  0.86466774  0.42040517  0.50212828    -0.78900
O60         O  0.13714249  0.42409594  0.49794472    -0.79800
O61         O  0.00065907  0.36498377  0.57913844    -0.81100
O62         O  0.99924452  0.36339026  0.42237229    -0.81400
Eu63       Eu  0.00077938  0.40373129  0.50018403     2.39200
O64         O  0.95228161  0.45183851  0.54890592    -0.88900
O65         O  0.04801574  0.45263496  0.45090096    -0.92500
C66         C  0.99793733  0.37702517  0.37828785     1.02200
C67         C  0.99912840  0.37919159  0.62305865     1.02000
C68         C  0.12352546  0.38002953  0.49663852     1.01900
C69         C  0.87910397  0.37653634  0.50235321     0.99800
H70         H  0.06999450  0.43275013  0.56748906     0.29500
O71         O  0.04985635  0.45268483  0.54770470    -1.01300
H72         H  0.93058010  0.43088323  0.43197053     0.29600
O73         O  0.95074361  0.45099442  0.45152698    -1.03800
O74         O  0.00125834  0.57965565  0.63543362    -0.81100
O75         O  0.99624093  0.57802155  0.36261133    -0.80600
O76         O  0.13675424  0.50125089  0.57660900    -0.79000
O77         O  0.86431139  0.49886479  0.57961507    -0.82400
O78         O  0.86211721  0.50150670  0.42253247    -0.80200
O79         O  0.13471653  0.49855515  0.41851279    -0.78900
O80         O  0.07722301  0.63778118  0.50076562    -0.80400
O81         O  0.91986418  0.63670908  0.50160488    -0.82300
O82         O  0.13598189  0.58080635  0.50069022    -0.79100
O83         O  0.86324845  0.57779505  0.50231559    -0.81700
O84         O  0.07947017  0.49934840  0.63517106    -0.77500
O85         O  0.07602032  0.49702237  0.36133222    -0.77500
O86         O  0.91929932  0.50152221  0.36399054    -0.77200
O87         O  0.92354946  0.50034189  0.63602228    -0.80700
O88         O  0.99869984  0.63712565  0.57716188    -0.80100
O89         O  0.99595222  0.63671551  0.41977435    -0.78400
Eu90       Eu  0.00119576  0.50113858  0.59610645     2.39800
Eu91       Eu  0.99840094  0.49993749  0.40241105     2.39600
Eu92       Eu  0.09693768  0.50201091  0.49815788     2.38400
Eu93       Eu  0.90278707  0.49956792  0.50055514     2.39900
Eu94       Eu  0.99883367  0.59786681  0.49864396     2.39800
O95         O  0.95012220  0.54841983  0.45115122    -0.92800
O96         O  0.04855973  0.55029199  0.54703317    -0.91700
C97         C  0.99948458  0.62358630  0.62129076     1.02300
C98         C  0.99503767  0.62219526  0.37591166     1.01100
C99         C  0.12321458  0.49937794  0.62071699     1.00500
C100        C  0.87929179  0.49968745  0.62334182     1.02500
C101        C  0.87544384  0.50280700  0.37831538     1.01400
C102        C  0.12022982  0.49618684  0.37463430     1.00200
C103        C  0.12146181  0.62464722  0.50218587     1.00300
C104        C  0.87606543  0.62208866  0.50334489     1.02900
H105        H  0.06719825  0.56987724  0.42900789     0.30300
O106        O  0.04764155  0.54993795  0.44935241    -1.05000
H107        H  0.93169549  0.56866571  0.56840407     0.32300
O108        O  0.95148979  0.54897865  0.54811302    -1.07500
O109        O  0.63844806  0.99704365  0.42389984    -0.80100
O110        O  0.36573094  0.00739399  0.41860635    -0.81700
O111        O  0.50103411  0.92522416  0.36138577    -0.78700
O112        O  0.50573133  0.08150056  0.36484127    -0.77100
O113        O  0.50389374  0.13812391  0.42409475    -0.78900
O114        O  0.49996815  0.86563676  0.41765861    -0.79800
O115        O  0.42510839  0.00880913  0.36233716    -0.81100
O116        O  0.58126995  0.00007557  0.36605784    -0.81400
Eu117      Eu  0.50222911  0.00255268  0.40334427     2.39200
O118        O  0.45427412  0.05119743  0.45215574    -0.88900
O119        O  0.54915843  0.95168895  0.45104727    -0.92500
C120        C  0.62521089  0.99804775  0.37959427     1.02200
C121        C  0.38079411  0.01014162  0.37497689     1.02000
C122        C  0.50098780  0.88077843  0.37395161     1.01900
C123        C  0.50539144  0.12520591  0.37972676     0.99800
H124        H  0.43063985  0.93500746  0.42840354     0.29500
O125        O  0.45078431  0.95398410  0.44913040    -1.01300
H126        H  0.57208322  0.06914174  0.43405856     0.29600
O127        O  0.55131603  0.04932338  0.45328026    -1.03800
O128        O  0.36184226  0.00362409  0.57625089    -0.81100
O129        O  0.63556165  0.99514930  0.58083180    -0.80600
O130        O  0.41878563  0.86599356  0.49914118    -0.79000
O131        O  0.42582278  0.13928037  0.50106703    -0.82400
O132        O  0.58213191  0.13578405  0.50522447    -0.80200
O133        O  0.57567019  0.86236243  0.50144300    -0.78900
O134        O  0.49385552  0.91882747  0.63441892    -0.80400
O135        O  0.50138311  0.07530351  0.63898948    -0.82300
O136        O  0.49471146  0.86252104  0.57491205    -0.79100
O137        O  0.50340276  0.13436653  0.58216269    -0.81700
O138        O  0.36223816  0.92523976  0.50021406    -0.77500
O139        O  0.63476314  0.91904518  0.50322698    -0.77500
O140        O  0.63866144  0.07652456  0.50427169    -0.77200
O141        O  0.36656021  0.08346532  0.49781204    -0.80700
O142        O  0.41905543  0.00023129  0.63455614    -0.80100
O143        O  0.57667243  0.99378219  0.63769676    -0.78400
Eu144      Eu  0.40311742  0.00323413  0.49839995     2.39800
Eu145      Eu  0.59754723  0.99849179  0.50173970     2.39600
Eu146      Eu  0.49809120  0.90354131  0.49735123     2.38400
Eu147      Eu  0.50305978  0.09759691  0.50239478     2.39900
Eu148      Eu  0.49862317  0.99829178  0.59708966     2.39800
O149        O  0.54952599  0.04694103  0.55091935    -0.92800
O150        O  0.45008000  0.95238503  0.54616173    -0.91700
C151        C  0.37513788  0.00266702  0.62055193     1.02300
C152        C  0.62093248  0.99288626  0.62456799     1.01100
C153        C  0.37515605  0.88087282  0.50107794     1.00500
C154        C  0.38137548  0.12728832  0.49881689     1.02500
C155        C  0.62581819  0.12093618  0.50502965     1.01400
C156        C  0.61990297  0.87533656  0.50414992     1.00200
C157        C  0.49297362  0.87520862  0.61928135     1.00300
C158        C  0.50227003  0.11955796  0.62590466     1.02900
H159        H  0.56547052  0.92908081  0.56815435     0.30300
O160        O  0.54666188  0.94996861  0.54804105    -1.05000
H161        H  0.43241522  0.06968825  0.56911136     0.32300
O162        O  0.45201933  0.04957725  0.54912452    -1.07500
O163        O  0.42115714  0.36302023  0.00002868    -0.80100
O164        O  0.42141659  0.63541247  0.99060963    -0.81700
O165        O  0.36293563  0.49841791  0.07423886    -0.78700
O166        O  0.36716628  0.49545097  0.91578467    -0.77100
O167        O  0.42615364  0.49385450  0.85952888    -0.78900
O168        O  0.41904858  0.50086196  0.13367261    -0.79800
O169        O  0.36349493  0.57745268  0.99091078    -0.81100
O170        O  0.36388794  0.42105246  0.99704313    -0.81400
Eu171      Eu  0.40355967  0.49929359  0.99597759     2.39200
O172        O  0.45324637  0.54609984  0.94684231    -0.88900
O173        O  0.45086156  0.45273316  0.04754955    -0.92500
C174        C  0.37712176  0.37688698  0.99795110     1.02200
C175        C  0.37735230  0.62150652  0.98933464     1.02000
C176        C  0.37539179  0.49847683  0.11876569     1.01900
C177        C  0.38178798  0.49387180  0.87193241     0.99800
H178        H  0.43000124  0.57028119  0.06299287     0.29500
O179        O  0.45058428  0.54985291  0.04428300    -1.01300
H180        H  0.43380594  0.42810008  0.93087578     0.29600
O181        O  0.45315941  0.44871453  0.95072151    -1.03800
O182        O  0.57973330  0.63504076  0.99598040    -0.81100
O183        O  0.57872423  0.36221496  0.00655071    -0.80600
O184        O  0.49646473  0.58328573  0.13157745    -0.79000
O185        O  0.50380698  0.57187953  0.85894375    -0.82400
O186        O  0.50465195  0.41586222  0.86541172    -0.80200
O187        O  0.49517868  0.42582894  0.13823082    -0.78900
O188        O  0.63518561  0.50185372  0.07928767    -0.80400
O189        O  0.63886573  0.49606020  0.92296913    -0.82300
O190        O  0.57646489  0.50504871  0.13622372    -0.79100
O191        O  0.58221770  0.49473920  0.86379403    -0.81700
O192        O  0.49906636  0.63949602  0.07210167    -0.77500
O193        O  0.49468773  0.36560441  0.08264546    -0.77500
O194        O  0.50284939  0.36021559  0.92542112    -0.77200
O195        O  0.50256179  0.63217168  0.91412419    -0.80700
O196        O  0.63698801  0.57660015  0.99949544    -0.80100
O197        O  0.63641261  0.42020380  0.00332907    -0.78400
Eu198      Eu  0.50052765  0.59656538  0.99490320     2.39800
Eu199      Eu  0.50014770  0.40184938  0.00253541     2.39600
Eu200      Eu  0.49823631  0.50285081  0.09564393     2.38400
Eu201      Eu  0.50305967  0.49543588  0.90175869     2.39900
Eu202      Eu  0.59715198  0.49851195  0.00043373     2.39800
O203        O  0.55012788  0.44786152  0.95273720    -0.92800
O204        O  0.54782131  0.54920980  0.04604042    -0.91700
C205        C  0.62363512  0.62071376  0.99725153     1.02300
C206        C  0.62274541  0.37623745  0.00642690     1.01100
C207        C  0.49698344  0.62701108  0.11662130     1.00500
C208        C  0.50320097  0.61647932  0.87059178     1.02500
C209        C  0.50394824  0.37240776  0.88092409     1.01400
C210        C  0.49338536  0.38127913  0.12611056     1.00200
C211        C  0.62071911  0.50480114  0.12299323     1.00300
C212        C  0.62590844  0.49568558  0.87862426     1.02900
H213        H  0.56722340  0.43276463  0.07174287     0.30300
O214        O  0.54788091  0.45196246  0.05049145    -1.05000
H215        H  0.57080771  0.56519210  0.92911478     0.32300
O216        O  0.55029992  0.54609272  0.94931022    -1.07500
C217        C  0.46143582  0.27202176  0.20109486    -0.22400
C218        C  0.49594119  0.27502657  0.23736857     0.09500
C219        C  0.52750472  0.31438858  0.23849428     0.09900
C220        C  0.52483743  0.34916304  0.20233797    -0.17400
C221        C  0.49129862  0.34552112  0.16509036    -0.27800
C222        C  0.45810189  0.30718505  0.16535695     0.18300
C223        C  0.49815763  0.23678576  0.27409572     0.12200
C224        C  0.56380995  0.31979708  0.27797381    -0.12100
H225        H  0.54983242  0.37882417  0.20252988     0.12500
C226        C  0.41766350  0.30299548  0.12991332    -0.23000
H227        H  0.43658862  0.24222430  0.20096903     0.08200
C228        C  0.46446607  0.23423424  0.31152778     0.04500
C229        C  0.46811569  0.19741486  0.34542750    -0.20200
C230        C  0.50502515  0.16351553  0.34332462    -0.12500
C231        C  0.53957849  0.16682479  0.30643102     0.13200
C232        C  0.53519265  0.20305209  0.27187070    -0.22900
C233        C  0.42505219  0.27065354  0.31608867    -0.06000
H234        H  0.44146411  0.19453124  0.37330254     0.14700
C235        C  0.58243423  0.13429583  0.30324695    -0.16200
H236        H  0.56135926  0.20553242  0.24335601     0.09100
H237        H  0.38314918  0.30130640  0.14946876     0.06900
H238        H  0.42197676  0.26963445  0.10882106     0.08100
H239        H  0.41534264  0.33373636  0.10502326     0.07200
H240        H  0.58914108  0.28926069  0.27735900     0.02000
H241        H  0.54536479  0.32077125  0.31313651     0.02500
H242        H  0.58482403  0.35328619  0.27411526     0.06000
H243        H  0.40289352  0.26431688  0.34846367     0.05000
H244        H  0.40128948  0.26892958  0.28431717    -0.00800
H245        H  0.44069471  0.30706942  0.31881631     0.00700
H246        H  0.58136401  0.11444692  0.26886398     0.04400
H247        H  0.58467744  0.10822510  0.33301566     0.06300
H248        H  0.61559485  0.15613227  0.30425004     0.07200
C249        C  0.53319595  0.77374725  0.29588981    -0.22400
C250        C  0.49775096  0.77651677  0.26057024     0.09500
C251        C  0.46406636  0.81405723  0.26204532     0.09900
C252        C  0.46621401  0.84768578  0.29938213    -0.17400
C253        C  0.50141036  0.84471996  0.33515895    -0.27800
C254        C  0.53599497  0.80777376  0.33271738     0.18300
C255        C  0.49672709  0.73954075  0.22247762     0.12200
C256        C  0.42617723  0.81878115  0.22402816    -0.12100
H257        H  0.44001937  0.87623589  0.30091949     0.12500
C258        C  0.57742974  0.80404889  0.36691000    -0.23000
H259        H  0.55941330  0.74521152  0.29421357     0.08200
C260        C  0.52618877  0.74273549  0.18164844     0.04500
C261        C  0.52497095  0.70598688  0.14727713    -0.20200
C262        C  0.49550779  0.66563955  0.15323782    -0.12500
C263        C  0.46541271  0.66307759  0.19401889     0.13200
C264        C  0.46647609  0.70005758  0.22804250    -0.22900
C265        C  0.55897260  0.78488616  0.17458866    -0.06000
H266        H  0.54792303  0.70828197  0.11611673     0.14700
C267        C  0.43104463  0.62228569  0.20139198    -0.16200
H268        H  0.44381251  0.69808341  0.25944455     0.09100
H269        H  0.61147303  0.80419835  0.34647983     0.06900
H270        H  0.57474498  0.76993532  0.38708832     0.08100
H271        H  0.57920018  0.83411459  0.39261607     0.07200
H272        H  0.40331115  0.78632145  0.22369481     0.02000
H273        H  0.44330884  0.82303835  0.18844993     0.02500
H274        H  0.40287334  0.85032092  0.23035365     0.06000
H275        H  0.57923798  0.78218562  0.14055188     0.05000
H276        H  0.58508236  0.78675736  0.20447873    -0.00800
H277        H  0.53774914  0.81843592  0.17369902     0.00700
H278        H  0.45104042  0.58857534  0.20754667     0.04400
H279        H  0.40761232  0.61852474  0.16949838     0.06300
H280        H  0.40775656  0.62815002  0.23303247     0.07200
C281        C  0.46450822  0.80062974  0.72973647    -0.22400
C282        C  0.49815361  0.76375898  0.72492186     0.09500
C283        C  0.52841413  0.76271392  0.68464589     0.09900
C284        C  0.52494799  0.79912217  0.65032666    -0.17400
C285        C  0.49191605  0.83660134  0.65533260    -0.27800
C286        C  0.46046245  0.83683263  0.69508769     0.18300
C287        C  0.50065389  0.72601451  0.76203575     0.12200
C288        C  0.56494235  0.72362826  0.67838694    -0.12100
H289        H  0.54895331  0.79891510  0.61987295     0.12500
C290        C  0.42115719  0.87328264  0.70131952    -0.23000
H291        H  0.44076499  0.80071437  0.76040065     0.08200
C292        C  0.52593708  0.73301294  0.80510708     0.04500
C293        C  0.52679569  0.69632576  0.83940211    -0.20200
C294        C  0.50331393  0.65251575  0.83146245    -0.12500
C295        C  0.47920788  0.64511168  0.78728817     0.13200
C296        C  0.47794735  0.68222273  0.75341040    -0.22900
C297        C  0.55220000  0.77909691  0.81465647    -0.06000
H298        H  0.54604659  0.70188914  0.87262941     0.14700
C299        C  0.45349171  0.59903873  0.77580376    -0.16200
H300        H  0.45906310  0.67719223  0.71988041     0.09100
H301        H  0.42829258  0.89516089  0.73370948     0.06900
H302        H  0.38643362  0.85456097  0.70590933     0.08100
H303        H  0.41701626  0.89745853  0.67019828     0.07200
H304        H  0.54677805  0.68838801  0.67617133     0.02000
H305        H  0.58991492  0.72354931  0.70929849     0.02500
H306        H  0.58623094  0.72858265  0.64521185     0.06000
H307        H  0.57080152  0.77845296  0.84979255     0.05000
H308        H  0.52659388  0.80942656  0.81477686    -0.00800
H309        H  0.57938373  0.78514125  0.78634911     0.00700
H310        H  0.43472035  0.60088290  0.74079757     0.04400
H311        H  0.42634751  0.59129371  0.80373271     0.06300
H312        H  0.47947487  0.56912301  0.77357919     0.07200
C313        C  0.47366478  0.23025303  0.69893934    -0.22400
C314        C  0.50760970  0.22649923  0.73550814     0.09500
C315        C  0.53920032  0.18725572  0.73672671     0.09900
C316        C  0.53594170  0.15220226  0.70094234    -0.17400
C317        C  0.50218897  0.15608856  0.66385906    -0.27800
C318        C  0.47011017  0.19531562  0.66326028     0.18300
C319        C  0.50811572  0.26353741  0.77299410     0.12200
C320        C  0.57653250  0.18283050  0.77539563    -0.12100
H321        H  0.56044438  0.12214808  0.70132998     0.12500
C322        C  0.43049533  0.20082855  0.62697570    -0.23000
H323        H  0.44919446  0.26035694  0.69873881     0.08200
C324        C  0.53503014  0.30578462  0.76772724     0.04500
C325        C  0.53332662  0.34045561  0.80384937    -0.20200
C326        C  0.50482872  0.33397558  0.84474959    -0.12500
C327        C  0.47676030  0.29199980  0.84923479     0.13200
C328        C  0.47913914  0.25709447  0.81330391    -0.22900
C329        C  0.56497117  0.31443134  0.72375659    -0.06000
H330        H  0.55437665  0.37282164  0.80013603     0.14700
C331        C  0.44260674  0.28465878  0.89038973    -0.16200
H332        H  0.45781459  0.22482581  0.81622783     0.09100
H333        H  0.43689432  0.23344420  0.60521133     0.06900
H334        H  0.39581011  0.20474870  0.64587638     0.08100
H335        H  0.42674021  0.16980535  0.60268001     0.07200
H336        H  0.55903095  0.18141802  0.81101397     0.02000
H337        H  0.60091209  0.21415063  0.77417012     0.02500
H338        H  0.59840415  0.14995686  0.77103010     0.06000
H339        H  0.58362957  0.34948545  0.72530063     0.05000
H340        H  0.54181074  0.31421687  0.69146322    -0.00800
H341        H  0.59237470  0.28594554  0.72028549     0.00700
H342        H  0.41761103  0.31544510  0.89280528     0.04400
H343        H  0.46265320  0.28096858  0.92446168     0.06300
H344        H  0.42088040  0.25170513  0.88579880     0.07200
C345        C  0.76762580  0.30314272  0.47715501    -0.22400
C346        C  0.77241328  0.26654086  0.51109655     0.09500
C347        C  0.81311831  0.26519339  0.54092235     0.09900
C348        C  0.84752189  0.30154843  0.53698776    -0.17400
C349        C  0.84247314  0.33862720  0.50338352    -0.27800
C350        C  0.80260895  0.33867728  0.47210909     0.18300
C351        C  0.73576597  0.22835620  0.51191927     0.12200
C352        C  0.82071047  0.22508426  0.57616712    -0.12100
H353        H  0.87843024  0.30119980  0.56044468     0.12500
C354        C  0.79686939  0.37374646  0.43139822    -0.23000
H355        H  0.73694827  0.30310826  0.45338552     0.08200
C356        C  0.69633160  0.23004242  0.54330943     0.04500
C357        C  0.66112529  0.19427891  0.54038459    -0.20200
C358        C  0.66386892  0.15769237  0.50595434    -0.12500
C359        C  0.70240955  0.15751987  0.47306417     0.13200
C360        C  0.73841907  0.19218140  0.47734063    -0.22900
C361        C  0.69072631  0.27023140  0.57883399    -0.06000
H362        H  0.63115885  0.19496726  0.56496101     0.14700
C363        C  0.70536648  0.12356731  0.43117184    -0.16200
H364        H  0.76795522  0.19215747  0.45221017     0.09100
H365        H  0.76462851  0.39608081  0.43745897     0.06900
H366        H  0.79234280  0.35375454  0.39734035     0.08100
H367        H  0.82810592  0.39754258  0.42645491     0.07200
H368        H  0.82180123  0.19037858  0.55689452     0.02000
H369        H  0.79121222  0.22426019  0.60261346     0.02500
H370        H  0.85484449  0.22926627  0.59609478     0.06000
H371        H  0.65728545  0.26660727  0.59993826     0.05000
H372        H  0.68950397  0.30499547  0.55962380    -0.00800
H373        H  0.72120874  0.27056046  0.60420778     0.00700
H374        H  0.70858923  0.14447956  0.39750115     0.04400
H375        H  0.67343448  0.10051607  0.42719463     0.06300
H376        H  0.73739437  0.10043071  0.43497214     0.07200
C377        C  0.73102820  0.80532356  0.53962218    -0.22400
C378        C  0.72730866  0.76574440  0.50913984     0.09500
C379        C  0.68697960  0.76082284  0.47924082     0.09900
C380        C  0.65190878  0.79661840  0.47942864    -0.17400
C381        C  0.65626529  0.83724329  0.50860094    -0.27800
C382        C  0.69553458  0.84071068  0.54056819     0.18300
C383        C  0.76622904  0.72995994  0.50893165     0.12200
C384        C  0.68143540  0.71834265  0.44650233    -0.12100
H385        H  0.62124049  0.79318805  0.45620005     0.12500
C386        C  0.70016016  0.87951428  0.57783976    -0.23000
H387        H  0.76153067  0.80816825  0.56344258     0.08200
C388        C  0.80973514  0.73890484  0.48518529     0.04500
C389        C  0.84512273  0.70339909  0.48469949    -0.20200
C390        C  0.83780709  0.65878372  0.50675326    -0.12500
C391        C  0.79458017  0.65068593  0.53217186     0.13200
C392        C  0.75936164  0.68644726  0.53274648    -0.22900
C393        C  0.81844549  0.78562325  0.45969476    -0.06000
H394        H  0.87847992  0.71041407  0.46648755     0.14700
C395        C  0.78574860  0.60545143  0.56033385    -0.16200
H396        H  0.72608202  0.68044747  0.55168957     0.09100
H397        H  0.73130225  0.90262880  0.56935928     0.06900
H398        H  0.70584137  0.86297091  0.61354891     0.08100
H399        H  0.66781637  0.90199895  0.58112750     0.07200
H400        H  0.67934812  0.68498978  0.46796976     0.02000
H401        H  0.71251678  0.71618075  0.42190937     0.02500
H402        H  0.64845571  0.72087185  0.42447464     0.06000
H403        H  0.85397993  0.78636883  0.44200692     0.05000
H404        H  0.81706256  0.81562854  0.48566452    -0.00800
H405        H  0.79066220  0.79110312  0.43181536     0.00700
H406        H  0.75227575  0.60759960  0.58157816     0.04400
H407        H  0.81569476  0.59922766  0.58572975     0.06300
H408        H  0.78209816  0.57448931  0.53577022     0.07200
C409        C  0.20109414  0.27629227  0.45653651    -0.22400
C410        C  0.23313800  0.27305828  0.49504072     0.09500
C411        C  0.22920294  0.30533805  0.53369829     0.09900
C412        C  0.19349143  0.34051123  0.53273794    -0.17400
C413        C  0.16106509  0.34336071  0.49456488    -0.27800
C414        C  0.16485841  0.31097004  0.45583715     0.18300
C415        C  0.27042441  0.23541982  0.49450869     0.12200
C416        C  0.26175651  0.30179098  0.57656032    -0.12100
H417        H  0.19015081  0.36529303  0.56241103     0.12500
C418        C  0.13209696  0.31248394  0.41289235    -0.23000
H419        H  0.20445500  0.25160094  0.42679995     0.08200
C420        C  0.25930986  0.18718246  0.50380133     0.04500
C421        C  0.29613841  0.15312453  0.50462112    -0.20200
C422        C  0.34435844  0.16603437  0.49733904    -0.12500
C423        C  0.35520780  0.21510030  0.48841755     0.13200
C424        C  0.31792322  0.24871203  0.48637973    -0.22900
C425        C  0.20870072  0.17184562  0.51415163    -0.06000
H426        H  0.28697422  0.11616482  0.51184428     0.14700
C427        C  0.40548612  0.23320967  0.48120143    -0.16200
H428        H  0.32586897  0.28602912  0.47931304     0.09100
H429        H  0.11141872  0.27863777  0.41081150     0.06900
H430        H  0.15365808  0.31622741  0.37977319     0.08100
H431        H  0.10651958  0.34271794  0.41367983     0.07200
H432        H  0.29940127  0.30767974  0.56557800     0.02000
H433        H  0.25834899  0.26577273  0.59300733     0.02500
H434        H  0.25275295  0.32887253  0.60420634     0.06000
H435        H  0.20627825  0.13288115  0.52157350     0.05000
H436        H  0.18544968  0.17979460  0.48295361    -0.00800
H437        H  0.19510401  0.19134162  0.54597935     0.00700
H438        H  0.40637671  0.27214164  0.47321633     0.04400
H439        H  0.42237381  0.21450306  0.45068746     0.06300
H440        H  0.42681558  0.22747055  0.51420304     0.07200
C441        C  0.18798010  0.74001431  0.53196314    -0.22400
C442        C  0.22787247  0.73590473  0.50200889     0.09500
C443        C  0.23374481  0.69453598  0.47377977     0.09900
C444        C  0.19883404  0.65848446  0.47527784    -0.17400
C445        C  0.15833048  0.66265709  0.50472614    -0.27800
C446        C  0.15364123  0.70346094  0.53463269     0.18300
C447        C  0.26439936  0.77425366  0.50248134     0.12200
C448        C  0.27678431  0.68865531  0.44194749    -0.12100
H449        H  0.20283879  0.62716575  0.45275580     0.12500
C450        C  0.11468063  0.70880078  0.57160340    -0.23000
H451        H  0.18435571  0.77141554  0.55446490     0.08200
C452        C  0.26132152  0.81419737  0.47178916     0.04500
C453        C  0.29774210  0.84874592  0.47267714    -0.20200
C454        C  0.33697099  0.84438972  0.50379945    -0.12500
C455        C  0.33894197  0.80511456  0.53595479     0.13200
C456        C  0.30295431  0.77020105  0.53421636    -0.22900
C457        C  0.21981152  0.82012852  0.43795565    -0.06000
H458        H  0.29599303  0.87895452  0.44837806     0.14700
C459        C  0.37698481  0.79960489  0.57390171    -0.16200
H460        H  0.30461202  0.73978828  0.55828912     0.09100
H461        H  0.09098733  0.73910594  0.56173614     0.06900
H462        H  0.13102507  0.71637742  0.60705038     0.08100
H463        H  0.09277888  0.67618274  0.57625537     0.07200
H464        H  0.30985996  0.68915787  0.46393517     0.02000
H465        H  0.27819278  0.71832390  0.41555883     0.02500
H466        H  0.27573335  0.65434003  0.42193980     0.06000
H467        H  0.22314414  0.85321972  0.41616767     0.05000
H468        H  0.18600257  0.82226980  0.45862135    -0.00800
H469        H  0.21801714  0.78914696  0.41317882     0.00700
H470        H  0.35976010  0.79550569  0.60947551     0.04400
H471        H  0.40107500  0.83084241  0.57663997     0.06300
H472        H  0.39865633  0.76717567  0.56646158     0.07200
C473        C  0.76233716  0.53484430  0.30914329    -0.22400
C474        C  0.76665371  0.50463373  0.26940011     0.09500
C475        C  0.80728210  0.47524552  0.26466997     0.09900
C476        C  0.84223376  0.47562395  0.30073212    -0.17400
C477        C  0.83784840  0.50536391  0.34106676    -0.27800
C478        C  0.79792856  0.53652112  0.34455981     0.18300
C479        C  0.72859631  0.50499612  0.23257635     0.12200
C480        C  0.81353516  0.44346304  0.22158660    -0.12100
H481        H  0.87297314  0.45221456  0.29763526     0.12500
C482        C  0.79265116  0.57379306  0.38330460    -0.23000
H483        H  0.73148790  0.55817765  0.31190092     0.08200
C484        C  0.68786373  0.47559007  0.23667343     0.04500
C485        C  0.65271922  0.47713818  0.20082405    -0.20200
C486        C  0.65765079  0.50716888  0.16078056    -0.12500
C487        C  0.69835578  0.53729550  0.15720426     0.13200
C488        C  0.73352201  0.53529307  0.19297026    -0.22900
C489        C  0.68205181  0.44200479  0.27844198    -0.06000
H490        H  0.62173273  0.45397804  0.20352397     0.14700
C491        C  0.70530915  0.57337332  0.11756710    -0.16200
H492        H  0.76481313  0.55805989  0.19031355     0.09100
H493        H  0.76116967  0.56521430  0.40590500     0.06900
H494        H  0.78706234  0.60943227  0.36660132     0.08100
H495        H  0.82452919  0.57723710  0.40648828     0.07200
H496        H  0.81444015  0.46560820  0.18859503     0.02000
H497        H  0.78331294  0.41782640  0.21919167     0.02500
H498        H  0.84730624  0.42266121  0.22344991     0.06000
H499        H  0.64824551  0.42131009  0.27606064     0.05000
H500        H  0.68163066  0.46264213  0.31237763    -0.00800
H501        H  0.71223922  0.41623577  0.27928293     0.00700
H502        H  0.71195770  0.60923174  0.13334487     0.04400
H503        H  0.67383790  0.57725757  0.09391153     0.06300
H504        H  0.73672446  0.56311445  0.09558223     0.07200
C505        C  0.23114156  0.46209220  0.30309315    -0.22400
C506        C  0.22784379  0.49401148  0.26456795     0.09500
C507        C  0.18837033  0.52523860  0.26137591     0.09900
C508        C  0.15334530  0.52441491  0.29736644    -0.17400
C509        C  0.15696387  0.49313034  0.33659846    -0.27800
C510        C  0.19588824  0.46065499  0.33882232     0.18300
C511        C  0.26626746  0.49435686  0.22800227     0.12200
C512        C  0.18374731  0.55994018  0.22037727    -0.12100
H513        H  0.12346690  0.54904903  0.29539388     0.12500
C514        C  0.20063537  0.42268374  0.37691364    -0.23000
H515        H  0.26119999  0.43765844  0.30494099     0.08200
C516        C  0.30892841  0.52019701  0.23516164     0.04500
C517        C  0.34386493  0.52041422  0.19914065    -0.20200
C518        C  0.33705921  0.49597269  0.15566283    -0.12500
C519        C  0.29461179  0.46883384  0.14922341     0.13200
C520        C  0.25978296  0.46853874  0.18551575    -0.22900
C521        C  0.31733280  0.54787192  0.28067179    -0.06000
H522        H  0.37655133  0.54017411  0.20488085     0.14700
C523        C  0.28637183  0.43856854  0.10526954    -0.16200
H524        H  0.22717997  0.44810057  0.18078932     0.09100
H525        H  0.23299130  0.42969739  0.39885197     0.06900
H526        H  0.20445255  0.38714777  0.35959076     0.08100
H527        H  0.16924961  0.42037493  0.40085219     0.07200
H528        H  0.18156606  0.54002069  0.18607818     0.02000
H529        H  0.21532266  0.58400665  0.21953961     0.02500
H530        H  0.15118651  0.58240470  0.22368674     0.06000
H531        H  0.35253853  0.56624835  0.28048982     0.05000
H532        H  0.31650297  0.52319783  0.31180602    -0.00800
H533        H  0.28905611  0.57539501  0.28503316     0.00700
H534        H  0.25303579  0.41716424  0.10812213     0.04400
H535        H  0.31659636  0.41325321  0.10045239     0.06300
H536        H  0.28281153  0.46162424  0.07314652     0.07200
C537        C  0.19960026  0.45941425  0.72554895    -0.22400
C538        C  0.23302444  0.49671862  0.72742967     0.09500
C539        C  0.23051156  0.53445742  0.69402122     0.09900
C540        C  0.19434735  0.53412410  0.65928603    -0.17400
C541        C  0.16070719  0.49698496  0.65745463    -0.27800
C542        C  0.16357929  0.45875384  0.69062728     0.18300
C543        C  0.27065303  0.49543960  0.76455049     0.12200
C544        C  0.26572646  0.57520455  0.69538119    -0.12100
H545        H  0.19193410  0.56324726  0.63373716     0.12500
C546        C  0.13069003  0.41592274  0.68920149    -0.23000
H547        H  0.20206564  0.43031982  0.75112997     0.08200
C548        C  0.26208509  0.51264721  0.81104365     0.04500
C549        C  0.29875868  0.51063144  0.84511907    -0.20200
C550        C  0.34456000  0.49315379  0.83364614    -0.12500
C551        C  0.35295766  0.47587366  0.78646027     0.13200
C552        C  0.31564074  0.47705222  0.75275496    -0.22900
C553        C  0.21442390  0.53385485  0.82443294    -0.06000
H554        H  0.29154445  0.52345392  0.88091816     0.14700
C555        C  0.40032454  0.45515937  0.77111009    -0.16200
H556        H  0.32157052  0.46390207  0.71673788     0.09100
H557        H  0.11001927  0.41385537  0.72304784     0.06900
H558        H  0.15227216  0.38279134  0.68541670     0.08100
H559        H  0.10514043  0.41668565  0.65892251     0.07200
H560        H  0.30251199  0.56132667  0.69004629     0.02000
H561        H  0.26368905  0.59357065  0.73054677     0.02500
H562        H  0.25836263  0.60199613  0.66693904     0.06000
H563        H  0.21388395  0.54631376  0.86216820     0.05000
H564        H  0.18586189  0.50664886  0.81996733    -0.00800
H565        H  0.20657754  0.56501625  0.80104919     0.00700
H566        H  0.39893514  0.44098330  0.73398505     0.04400
H567        H  0.41042024  0.42512963  0.79511420     0.06300
H568        H  0.42834641  0.48325238  0.77183568     0.07200
C569        C  0.81250891  0.52526155  0.73904216    -0.22400
C570        C  0.77309572  0.49476450  0.73409421     0.09500
C571        C  0.76810251  0.46663180  0.69250088     0.09900
C572        C  0.80315598  0.46928427  0.65675482    -0.17400
C573        C  0.84316334  0.49920816  0.66185948    -0.27800
C574        C  0.84782764  0.52780779  0.70351136     0.18300
C575        C  0.73622761  0.49470314  0.77194079     0.12200
C576        C  0.72549712  0.43434666  0.68558674    -0.12100
H577        H  0.79958186  0.44747546  0.62486668     0.12500
C578        C  0.88895638  0.56216227  0.71018937    -0.23000
H579        H  0.81549985  0.54721682  0.77088873     0.08200
C580        C  0.73657758  0.46084707  0.80939747     0.04500
C581        C  0.70012658  0.46210699  0.84392051    -0.20200
C582        C  0.66393035  0.49689272  0.84207581    -0.12500
C583        C  0.66495239  0.53206283  0.80553539     0.13200
C584        C  0.70078661  0.53002245  0.77057939    -0.22900
C585        C  0.77574675  0.42402169  0.81330542    -0.06000
H586        H  0.69965812  0.43565879  0.87231544     0.14700
C587        C  0.63030881  0.57339392  0.80323639    -0.16200
H588        H  0.70151357  0.55663933  0.74232081     0.09100
H589        H  0.92297735  0.54214149  0.71410072     0.06900
H590        H  0.88453825  0.58432390  0.74287444     0.08100
H591        H  0.89131264  0.58674599  0.67902271     0.07200
H592        H  0.69216280  0.45587090  0.68630040     0.02000
H593        H  0.72404446  0.40722454  0.71452490     0.02500
H594        H  0.72705601  0.41509963  0.65084730     0.06000
H595        H  0.77080198  0.40055783  0.84501664     0.05000
H596        H  0.81084634  0.44225031  0.81678528    -0.00800
H597        H  0.77628780  0.40102670  0.78097953     0.00700
H598        H  0.65055024  0.60758629  0.80355641     0.04400
H599        H  0.60522430  0.57463526  0.83380673     0.06300
H600        H  0.60924554  0.57132218  0.76959727     0.07200
C601        C  0.76631690  0.80449766  0.97015743    -0.22400
C602        C  0.77017828  0.76638756  0.00246307     0.09500
C603        C  0.80958802  0.76405840  0.03381632     0.09900
C604        C  0.84400671  0.80066874  0.03280538    -0.17400
C605        C  0.83998175  0.83942000  0.00091612    -0.27800
C606        C  0.80100603  0.84073773  0.96837050     0.18300
C607        C  0.73281333  0.72886811  0.00206658     0.12200
C608        C  0.81520234  0.72287530  0.06815570    -0.12100
H609        H  0.87402670  0.79926742  0.05733892     0.12500
C610        C  0.79562217  0.87819833  0.92981664    -0.23000
H611        H  0.73634120  0.80549636  0.94552199     0.08200
C612        C  0.69116464  0.73306268  0.03010652     0.04500
C613        C  0.65592127  0.69744617  0.02723379    -0.20200
C614        C  0.66139727  0.65772172  0.99692176    -0.12500
C615        C  0.70306017  0.65400276  0.96819124     0.13200
C616        C  0.73847977  0.68939378  0.97174697    -0.22900
C617        C  0.68409370  0.77504843  0.06313150    -0.06000
H618        H  0.62417025  0.70029419  0.04928476     0.14700
C619        C  0.71073550  0.61478851  0.93183308    -0.16200
H620        H  0.77034262  0.68681073  0.94980980     0.09100
H621        H  0.76239529  0.89901005  0.93602536     0.06900
H622        H  0.79305375  0.86039396  0.89437007     0.08100
H623        H  0.82608823  0.90330285  0.92770569     0.07200
H624        H  0.81742842  0.68876946  0.04792006     0.02000
H625        H  0.78409266  0.72135929  0.09273596     0.02500
H626        H  0.84810251  0.72641608  0.09007508     0.06000
H627        H  0.64951310  0.77283533  0.08248101     0.05000
H628        H  0.68445537  0.80881924  0.04220826    -0.00800
H629        H  0.71323067  0.77610015  0.09009731     0.00700
H630        H  0.71908347  0.63094579  0.89648904     0.04400
H631        H  0.67902973  0.59179982  0.92627895     0.06300
H632        H  0.74132607  0.59208961  0.94306940     0.07200
C633        C  0.73792394  0.31013718  0.03637649    -0.22400
C634        C  0.73315468  0.26943228  0.00762535     0.09500
C635        C  0.69133406  0.26274453  0.98026637     0.09900
C636        C  0.65556904  0.29792356  0.98111774    -0.17400
C637        C  0.66039050  0.33920373  0.00942340    -0.27800
C638        C  0.70157140  0.34459591  0.03867140     0.18300
C639        C  0.77156643  0.23316515  0.00823049     0.12200
C640        C  0.68468546  0.21855189  0.95011711    -0.12100
H641        H  0.62395685  0.29347455  0.95908436     0.12500
C642        C  0.70753081  0.38445963  0.07464346    -0.23000
H643        H  0.76969625  0.31431796  0.05826395     0.08200
C644        C  0.81156043  0.23673624  0.97782625     0.04500
C645        C  0.84624820  0.20055016  0.97874714    -0.20200
C646        C  0.84200673  0.16111033  0.00966983    -0.12500
C647        C  0.80290735  0.15894094  0.04191147     0.13200
C648        C  0.76772256  0.19460992  0.03998766    -0.22900
C649        C  0.81727710  0.27841545  0.94411949    -0.06000
H650        H  0.87644698  0.20261944  0.95453303     0.14700
C651        C  0.79792207  0.12122844  0.08024522    -0.16200
H652        H  0.73732532  0.19277817  0.06399539     0.09100
H653        H  0.73801565  0.40759638  0.06408243     0.06900
H654        H  0.71512718  0.36888663  0.11043693     0.08100
H655        H  0.67522941  0.40686467  0.07891812     0.07200
H656        H  0.68564952  0.18625788  0.97325694     0.02000
H657        H  0.71373271  0.21615524  0.92317429     0.02500
H658        H  0.64992920  0.21890441  0.93087221     0.06000
H659        H  0.85043240  0.27540915  0.92247303     0.05000
H660        H  0.81909614  0.31224371  0.96485637    -0.00800
H661        H  0.78636850  0.27998006  0.91921933     0.00700
H662        H  0.79377296  0.13889843  0.11559887     0.04400
H663        H  0.82936116  0.09742009  0.08319825     0.06300
H664        H  0.76565875  0.09918973  0.07316098     0.07200
C665        C  0.19146844  0.76164027  0.02507391    -0.22400
C666        C  0.22991650  0.76670029  0.99332697     0.09500
C667        C  0.23261177  0.80741238  0.96362391     0.09900
C668        C  0.19685015  0.84247527  0.96648097    -0.17400
C669        C  0.15805242  0.83751407  0.99795721    -0.27800
C670        C  0.15538825  0.79655918  0.02786144     0.18300
C671        C  0.26777570  0.72958382  0.99250309     0.12200
C672        C  0.27337737  0.81386276  0.92903535    -0.12100
H673        H  0.19886505  0.87369755  0.94352322     0.12500
C674        C  0.11580569  0.79024403  0.06401261    -0.23000
H675        H  0.18997130  0.73036964  0.04799470     0.08200
C676        C  0.30707896  0.73160743  0.02407815     0.04500
C677        C  0.34271998  0.69635343  0.02137246    -0.20200
C678        C  0.33998826  0.65903746  0.98781462    -0.12500
C679        C  0.30111713  0.65791923  0.95518632     0.13200
C680        C  0.26518087  0.69286730  0.95847861    -0.22900
C681        C  0.31132587  0.77102755  0.06058082    -0.06000
H682        H  0.37251678  0.69743969  0.04619673     0.14700
C683        C  0.29722056  0.62195757  0.91521089    -0.16200
H684        H  0.23536772  0.69207975  0.93364462     0.09100
H685        H  0.11462821  0.82160907  0.08839157     0.06900
H686        H  0.12116787  0.75772209  0.08624424     0.08100
H687        H  0.08088863  0.78633729  0.04557900     0.07200
H688        H  0.27377505  0.78384364  0.90303198     0.02000
H689        H  0.30779309  0.81448848  0.94883266     0.02500
H690        H  0.27020215  0.84782954  0.90863089     0.06000
H691        H  0.34439250  0.76750944  0.08233767     0.05000
H692        H  0.28020542  0.76993014  0.08518417    -0.00800
H693        H  0.31225621  0.80626834  0.04225953     0.00700
H694        H  0.26484006  0.59964462  0.92061008     0.04400
H695        H  0.32880520  0.59829173  0.91242586     0.06300
H696        H  0.29394123  0.64103136  0.88047607     0.07200
C697        C  0.25991492  0.30907559  0.97750913    -0.22400
C698        C  0.27106765  0.26465570  0.99762986     0.09500
C699        C  0.31677247  0.25679043  0.01720438     0.09900
C700        C  0.35064255  0.29376415  0.01583786    -0.17400
C701        C  0.33945942  0.33914458  0.99692461    -0.27800
C702        C  0.29309606  0.34672113  0.97731778     0.18300
C703        C  0.23366583  0.22731499  0.99820552     0.12200
C704        C  0.32940353  0.20979935  0.04042037    -0.12100
H705        H  0.38590050  0.28726292  0.03040351     0.12500
C706        C  0.27796329  0.39364157  0.95527775    -0.23000
H707        H  0.22458075  0.31439978  0.96242533     0.08200
C708        C  0.19642963  0.22830203  0.03219016     0.04500
C709        C  0.16041426  0.19348389  0.03007950    -0.20200
C710        C  0.16055217  0.15823011  0.99433853    -0.12500
C711        C  0.19701825  0.15834354  0.95921039     0.13200
C712        C  0.23370528  0.19240625  0.96223860    -0.22900
C713        C  0.19486976  0.26602633  0.07067083    -0.06000
H714        H  0.13221810  0.19348672  0.05669063     0.14700
C715        C  0.19707820  0.12497757  0.91673570    -0.16200
H716        H  0.26175225  0.19272303  0.93546576     0.09100
H717        H  0.27695950  0.42200016  0.98304031     0.06900
H718        H  0.24157054  0.39154392  0.93945194     0.08100
H719        H  0.30305155  0.40378747  0.92621670     0.07200
H720        H  0.32628732  0.18038855  0.01392248     0.02000
H721        H  0.30470508  0.20276956  0.07071653     0.02500
H722        H  0.36651544  0.20986030  0.05460808     0.06000
H723        H  0.16366078  0.26121164  0.09474774     0.05000
H724        H  0.19216246  0.30204740  0.05414141    -0.00800
H725        H  0.22789174  0.26417598  0.09266837     0.00700
H726        H  0.19828760  0.14633118  0.88322300     0.04400
H727        H  0.16480209  0.10213601  0.91458332     0.06300
H728        H  0.22909717  0.10157382  0.91817912     0.07200
C729        C  0.68939752  0.96029092  0.73789968    -0.22400
C730        C  0.72743590  0.99284155  0.73547698     0.09500
C731        C  0.73186187  0.02317839  0.69538302     0.09900
C732        C  0.69689792  0.02166327  0.65940784    -0.17400
C733        C  0.65788662  0.99014415  0.66232789    -0.27800
C734        C  0.65497458  0.95782092  0.70136431     0.18300
C735        C  0.76336328  0.99335553  0.77441017     0.12200
C736        C  0.77363557  0.05689415  0.69043675    -0.12100
H737        H  0.69963244  0.04579690  0.62913840     0.12500
C738        C  0.61770033  0.91890840  0.70476199    -0.23000
H739        H  0.68707035  0.93604540  0.76812567     0.08200
C740        C  0.76060407  0.02624225  0.81260781     0.04500
C741        C  0.79680403  0.02656201  0.84750831    -0.20200
C742        C  0.83519154  0.99421616  0.84536150    -0.12500
C743        C  0.83632587  0.95950873  0.80836707     0.13200
C744        C  0.80085730  0.96023341  0.77287415    -0.22900
C745        C  0.71925804  0.06056043  0.81669650    -0.06000
H746        H  0.79545600  0.05253357  0.87628807     0.14700
C747        C  0.87295784  0.91991979  0.80608574    -0.16200
H748        H  0.80207492  0.93429886  0.74403369     0.09100
H749        H  0.59431860  0.92554975  0.73614873     0.06900
H750        H  0.63565758  0.88377288  0.70946848     0.08100
H751        H  0.59515534  0.91583239  0.67233029     0.07200
H752        H  0.80752320  0.03622743  0.69039154     0.02000
H753        H  0.77421366  0.08256502  0.72068580     0.02500
H754        H  0.77179710  0.07777216  0.65664738     0.06000
H755        H  0.72252392  0.08373711  0.84881816     0.05000
H756        H  0.68531164  0.04016197  0.81950953    -0.00800
H757        H  0.71758003  0.08402400  0.78471873     0.00700
H758        H  0.85438446  0.88484002  0.80424292     0.04400
H759        H  0.89664074  0.91842619  0.83778940     0.06300
H760        H  0.89526424  0.92430088  0.77352976     0.07200
C761        C  0.19286998  0.03975032  0.76743611    -0.22400
C762        C  0.22653116  0.00269383  0.76502860     0.09500
C763        C  0.22536627  0.96548919  0.79916038     0.09900
C764        C  0.18984536  0.96569809  0.83455956    -0.17400
C765        C  0.15568954  0.00237653  0.83663779    -0.27800
C766        C  0.15770362  0.04045113  0.80323050     0.18300
C767        C  0.26343604  0.00395901  0.72707657     0.12200
C768        C  0.26171766  0.92574110  0.79825893    -0.12100
H769        H  0.18851606  0.93696141  0.86062385     0.12500
C770        C  0.12481629  0.08321826  0.80533716    -0.23000
H771        H  0.19454581  0.06869752  0.74163712     0.08200
C772        C  0.25588116  0.98221856  0.68220788     0.04500
C773        C  0.29279916  0.98254176  0.64813627    -0.20200
C774        C  0.33717602  0.00427916  0.65786034    -0.12500
C775        C  0.34380954  0.02769718  0.70251531     0.13200
C776        C  0.30687954  0.02690211  0.73654991    -0.22900
C777        C  0.20886586  0.95863061  0.67049832    -0.06000
H778        H  0.28713990  0.96513065  0.61393917     0.14700
C779        C  0.38881816  0.05508732  0.71421617    -0.16200
H780        H  0.31190055  0.04412204  0.77095765     0.09100
H781        H  0.10281094  0.08478979  0.77228687     0.06900
H782        H  0.14644867  0.11644578  0.80786818     0.08100
H783        H  0.10052982  0.08279362  0.83660233     0.07200
H784        H  0.29811864  0.94083467  0.80307497     0.02000
H785        H  0.25998859  0.90665520  0.76347300     0.02500
H786        H  0.25537510  0.89925810  0.82722443     0.06000
H787        H  0.20871595  0.94339808  0.63379034     0.05000
H788        H  0.17957617  0.98532887  0.67290414    -0.00800
H789        H  0.20176428  0.92916758  0.69618044     0.00700
H790        H  0.38576954  0.07447143  0.74877972     0.04400
H791        H  0.39600936  0.08202210  0.68586711     0.06300
H792        H  0.41954916  0.03021709  0.71741627     0.07200
C793        C  0.26928625  0.04081570  0.30270305    -0.22400
C794        C  0.27647317  0.01266237  0.26187174     0.09500
C795        C  0.31890344  0.98591706  0.25716711     0.09900
C796        C  0.35255457  0.98659203  0.29440944    -0.17400
C797        C  0.34494516  0.01372014  0.33612099    -0.27800
C798        C  0.30335845  0.04257020  0.33952962     0.18300
C799        C  0.23839571  0.01097968  0.22509072     0.12200
C800        C  0.32814923  0.95591804  0.21336156    -0.12100
H801        H  0.38455715  0.96492512  0.29136683     0.12500
C802        C  0.29434235  0.07714147  0.38001352    -0.23000
H803        H  0.23697141  0.06205942  0.30555730     0.08200
C804        C  0.19711257  0.98289198  0.23182889     0.04500
C805        C  0.16124875  0.98319389  0.19679468    -0.20200
C806        C  0.16566042  0.01065001  0.15492800    -0.12500
C807        C  0.20666600  0.04001791  0.14889759     0.13200
C808        C  0.24284306  0.03908131  0.18379508    -0.22900
C809        C  0.19120990  0.95212604  0.27573956    -0.06000
H810        H  0.12970903  0.96143960  0.20194477     0.14700
C811        C  0.21266921  0.07467587  0.10789093    -0.16200
H812        H  0.27426701  0.06138228  0.17937935     0.09100
H813        H  0.26296553  0.06506894  0.40112178     0.06900
H814        H  0.28660812  0.11317083  0.36510721     0.08100
H815        H  0.32529800  0.08158025  0.40424328     0.07200
H816        H  0.32892935  0.97910012  0.18110131     0.02000
H817        H  0.29941162  0.92881427  0.20929665     0.02500
H818        H  0.36291868  0.93685944  0.21567054     0.06000
H819        H  0.15716254  0.93169410  0.27494789     0.05000
H820        H  0.19112694  0.97486863  0.30829174    -0.00800
H821        H  0.22113718  0.92613246  0.27804360     0.00700
H822        H  0.21977221  0.11104162  0.12226652     0.04400
H823        H  0.18059239  0.07783312  0.08498442     0.06300
H824        H  0.24348570  0.06360926  0.08546452     0.07200
C825        C  0.69123287  0.00146862  0.25935960    -0.22400
C826        C  0.73880360  0.99890279  0.27444762     0.09500
C827        C  0.74919905  0.99522541  0.32365939     0.09900
C828        C  0.71150330  0.99514900  0.35677724    -0.17400
C829        C  0.66328610  0.99740156  0.34199957    -0.27800
C830        C  0.65326202  0.99924966  0.29196967     0.18300
C831        C  0.77674978  0.99893016  0.23749590     0.12200
C832        C  0.79991627  0.99030889  0.34123877    -0.12100
H833        H  0.72007599  0.99294687  0.39453054     0.12500
C834        C  0.60326868  0.99762726  0.27157926    -0.23000
H835        H  0.68382418  0.00434410  0.22136370     0.08200
C836        C  0.78169248  0.96046559  0.20505418     0.04500
C837        C  0.81626898  0.96318587  0.16895431    -0.20200
C838        C  0.84628509  0.00306920  0.16484824    -0.12500
C839        C  0.84131382  0.04177765  0.19708107     0.13200
C840        C  0.80657157  0.03908653  0.23317184    -0.22900
C841        C  0.75130200  0.91606256  0.20897975    -0.06000
H842        H  0.82035918  0.93372216  0.14404195     0.14700
C843        C  0.87058874  0.08699289  0.19339782    -0.16200
H844        H  0.80198719  0.06897188  0.25747834     0.09100
H845        H  0.58515370  0.96417165  0.28303575     0.06900
H846        H  0.60325784  0.99790966  0.23181748     0.08100
H847        H  0.58249040  0.02920849  0.28339289     0.07200
H848        H  0.82075389  0.02275591  0.33189887     0.02000
H849        H  0.81683441  0.95851623  0.32450015     0.02500
H850        H  0.80152105  0.98574432  0.38070528     0.06000
H851        H  0.76163585  0.88870149  0.18208484     0.05000
H852        H  0.71314663  0.92486923  0.20285790    -0.00800
H853        H  0.75555879  0.90006571  0.24511157     0.00700
H854        H  0.84634503  0.11824158  0.18975870     0.04400
H855        H  0.89495422  0.08730549  0.16215549     0.06300
H856        H  0.89233761  0.09148806  0.22635111     0.07200
C857        C  0.96597563  0.30515999  0.73239017    -0.22400
C858        C  0.00157184  0.26991358  0.73100765     0.09500
C859        C  0.03574917  0.27037874  0.69394889     0.09900
C860        C  0.03382387  0.30652369  0.65917623    -0.17400
C861        C  0.99832630  0.34198310  0.66047633    -0.27800
C862        C  0.96346883  0.34096910  0.69725577     0.18300
C863        C  0.00154063  0.23200673  0.76800992     0.12200
C864        C  0.07439193  0.23294486  0.69135256    -0.12100
H865        H  0.06043523  0.30739024  0.63098917     0.12500
C866        C  0.92204668  0.37548568  0.69958765    -0.23000
H867        H  0.93936184  0.30409649  0.76057820     0.08200
C868        C  0.02064641  0.23995629  0.81396312     0.04500
C869        C  0.01913462  0.20305500  0.84798579    -0.20200
C870        C  0.99910938  0.15808962  0.83715368    -0.12500
C871        C  0.98056430  0.15014729  0.79036749     0.13200
C872        C  0.98185192  0.18741798  0.75668170    -0.22900
C873        C  0.04300331  0.28727052  0.82686091    -0.06000
H874        H  0.03412874  0.20937472  0.88320158     0.14700
C875        C  0.95837517  0.10324167  0.77541317    -0.16200
H876        H  0.96738809  0.18186494  0.72109381     0.09100
H877        H  0.92467777  0.39720926  0.73274960     0.06900
H878        H  0.88794932  0.35512468  0.70031398     0.08100
H879        H  0.92016175  0.39998853  0.66851942     0.07200
H880        H  0.05808934  0.19697328  0.68719857     0.02000
H881        H  0.09608443  0.23370710  0.72464283     0.02500
H882        H  0.09868731  0.23904946  0.66052047     0.06000
H883        H  0.05684767  0.28738272  0.86413389     0.05000
H884        H  0.01605868  0.31623991  0.82362535    -0.00800
H885        H  0.07329705  0.29487746  0.80235046     0.00700
H886        H  0.92869688  0.09378181  0.80003759     0.04400
H887        H  0.98581289  0.07456201  0.77546450     0.06300
H888        H  0.94340148  0.10497421  0.73861443     0.07200
C889        C  0.96785751  0.73514872  0.69244951    -0.22400
C890        C  0.99876780  0.73054547  0.73162194     0.09500
C891        C  0.02927411  0.69053307  0.73496746     0.09900
C892        C  0.02874519  0.65618557  0.69838591    -0.17400
C893        C  0.99843587  0.66106247  0.65856664    -0.27800
C894        C  0.96711235  0.70081357  0.65583252     0.18300
C895        C  0.99857521  0.76824332  0.76873527     0.12200
C896        C  0.06252859  0.68434327  0.77695409    -0.12100
H897        H  0.05246913  0.62559350  0.70062608     0.12500
C898        C  0.93157903  0.70642178  0.61554723    -0.23000
H899        H  0.94418259  0.76580420  0.69065341     0.08200
C900        C  0.02471496  0.81094173  0.76283842     0.04500
C901        C  0.02325886  0.84583981  0.79890202    -0.20200
C902        C  0.99678139  0.83867171  0.84107839    -0.12500
C903        C  0.97034683  0.79568288  0.84668711     0.13200
C904        C  0.97151556  0.76113873  0.81023854    -0.22900
C905        C  0.05449786  0.81929498  0.71869884    -0.06000
H906        H  0.04356002  0.87858600  0.79446765     0.14700
C907        C  0.93976107  0.78631788  0.89015728    -0.16200
H908        H  0.95134504  0.72823454  0.81409558     0.09100
H909        H  0.95052372  0.71200729  0.58113657     0.06900
H910        H  0.90780012  0.73774042  0.62115857     0.08100
H911        H  0.90870274  0.67401614  0.61311254     0.07200
H912        H  0.04148907  0.68164652  0.81051856     0.02000
H913        H  0.08703321  0.71550301  0.77938231     0.02500
H914        H  0.08456327  0.65145938  0.77356955     0.06000
H915        H  0.07339435  0.85422265  0.72006514     0.05000
H916        H  0.03125585  0.81907157  0.68647389    -0.00800
H917        H  0.08172890  0.79059212  0.71530819     0.00700
H918        H  0.91390035  0.81604861  0.89516358     0.04400
H919        H  0.96256127  0.78271060  0.92246689     0.06300
H920        H  0.91902952  0.75260414  0.88659753     0.07200
C921        C  0.96726288  0.73361437  0.30275554    -0.22400
C922        C  0.99983411  0.72841520  0.26510405     0.09500
C923        C  0.02944527  0.68766707  0.26305680     0.09900
C924        C  0.02633821  0.65326168  0.29944077    -0.17400
C925        C  0.99422934  0.65865689  0.33769594    -0.27800
C926        C  0.96334631  0.69882837  0.33866554     0.18300
C927        C  0.00154534  0.76587913  0.22783287     0.12200
C928        C  0.06411840  0.68043550  0.22248452    -0.12100
H929        H  0.04972733  0.62233945  0.29846650     0.12500
C930        C  0.92453337  0.70538016  0.37543917    -0.23000
H931        H  0.94401057  0.76465753  0.30354534     0.08200
C932        C  0.96674165  0.76819259  0.19139543     0.04500
C933        C  0.96893538  0.80525829  0.15769942    -0.20200
C934        C  0.00499567  0.84013452  0.15976359    -0.12500
C935        C  0.04073699  0.83690457  0.19555211     0.13200
C936        C  0.03813736  0.80004818  0.22952852    -0.22900
C937        C  0.92746318  0.73147535  0.18800458    -0.06000
H938        H  0.94195998  0.80742093  0.12987742     0.14700
C939        C  0.08297559  0.87023046  0.19808530    -0.16200
H940        H  0.06511984  0.79763244  0.25732680     0.09100
H941        H  0.88973801  0.71097739  0.35708277     0.06900
H942        H  0.93254174  0.73732726  0.39765551     0.08100
H943        H  0.91999121  0.67393285  0.39905868     0.07200
H944        H  0.09080697  0.70982093  0.22219137     0.02000
H945        H  0.04452771  0.68018469  0.18790604     0.02500
H946        H  0.08365968  0.64600886  0.22586042     0.06000
H947        H  0.90391533  0.73805952  0.15670238     0.05000
H948        H  0.90503681  0.73264223  0.22072591    -0.00800
H949        H  0.94322916  0.69522045  0.18423056     0.00700
H950        H  0.08175976  0.89056222  0.23219342     0.04400
H951        H  0.08439720  0.89584376  0.16791359     0.06300
H952        H  0.11657355  0.84909024  0.19702163     0.07200
C953        C  0.96554261  0.26672747  0.30577168    -0.22400
C954        C  0.00050818  0.26855300  0.26993047     0.09500
C955        C  0.03399556  0.30627333  0.26947850     0.09900
C956        C  0.03200214  0.34133108  0.30527903    -0.17400
C957        C  0.99710227  0.33960525  0.34126338    -0.27800
C958        C  0.96290783  0.30220365  0.34119498     0.18300
C959        C  0.00086393  0.23117445  0.23246704     0.12200
C960        C  0.07180915  0.30940721  0.23125163    -0.12100
H961        H  0.05809757  0.37003593  0.30548926     0.12500
C962        C  0.92204636  0.29961398  0.37637086    -0.23000
H963        H  0.93954964  0.23793491  0.30549317     0.08200
C964        C  0.02640779  0.18818382  0.23855565     0.04500
C965        C  0.02694331  0.15445610  0.20137008    -0.20200
C966        C  0.00218561  0.16255488  0.15826245    -0.12500
C967        C  0.97566633  0.20555215  0.15276472     0.13200
C968        C  0.97557810  0.23932045  0.18998788    -0.22900
C969        C  0.05287107  0.17793569  0.28440959    -0.06000
H970        H  0.04699424  0.12158942  0.20596659     0.14700
C971        C  0.94596061  0.21559559  0.10878512    -0.16200
H972        H  0.95566320  0.27236825  0.18604978     0.09100
H973        H  0.92582478  0.26708434  0.39887232     0.06900
H974        H  0.88768852  0.29754181  0.35652351     0.08100
H975        H  0.91970169  0.33122084  0.40012902     0.07200
H976        H  0.05462405  0.31239330  0.19554433     0.02000
H977        H  0.09451934  0.27685715  0.23212326     0.07700
H978        H  0.09530281  0.34105123  0.23634418     0.06000
H979        H  0.07111671  0.14266336  0.28332453     0.05000
H980        H  0.02735223  0.17767180  0.31482587    -0.00800
H981        H  0.08031631  0.20592658  0.29072665     0.00700
H982        H  0.92500295  0.24914631  0.11247329     0.04400
H983        H  0.92028272  0.18587894  0.10273480     0.06300
H984        H  0.96940830  0.21983218  0.07706196     0.07200
loop_ 
_geom_bond_atom_site_label_1 
_geom_bond_atom_site_label_2 
_geom_bond_distance 
_geom_bond_site_symmetry_2 
_ccdc_geom_bond_type 
O1           C12   1.292       .  A
O1          Eu37   2.463       .  S
O2           C13   1.288       .  A
O2          Eu36   2.446   1_545  S
O3           C14   1.290       .  A
O3           Eu9   2.454       .  S
O4           C15   1.290       .  A
O4           Eu9   2.453   1_654  S
O5           C15   1.292       .  A
O5          Eu39   2.461       .  S
O6           C14   1.290       .  A
O6          Eu38   2.453   1_545  S
O7           C13   1.293       .  A
O7           Eu9   2.466   1_655  S
O8           C12   1.290       .  A
O8           Eu9   2.456   1_554  S
Eu9          O19   2.349   1_456  S
Eu9          O11   2.352   1_556  S
Eu9          O10   2.355   1_455  S
Eu9          O17   2.347       .  S
O10         Eu39   2.360   1_556  S
O10         Eu36   2.357   1_545  S
O11         Eu37   2.348       .  S
O11         Eu38   2.351   1_544  S
C12         C966   1.486       .  S
C13         C870   1.491       .  S
C14         C710   1.471       .  S
C15         C646   1.477       .  S
H16          O17   0.966       .  S
O17         Eu38   2.353   1_545  S
O17         Eu36   2.348   1_445  S
H18          O19   0.966       .  S
O19         Eu37   2.350   1_655  S
O19         Eu39   2.351       .  S
O20          C43   1.291       .  A
O20         Eu36   2.455       .  S
O21          C44   1.293       .  A
O21         Eu37   2.470   1_565  S
O22          C45   1.289   1_565  A
O22         Eu38   2.449       .  S
O23          C46   1.291       .  A
O23         Eu39   2.458   1_566  S
O24          C47   1.290       .  A
O24         Eu39   2.455       .  S
O25          C48   1.290       .  A
O25         Eu38   2.455   1_544  S
O26          C49   1.289       .  A
O26         Eu40   2.450   1_456  S
O27          C50   1.291       .  A
O27         Eu40   2.458       .  S
O28          C49   1.293       .  A
O28         Eu38   2.466       .  S
O29          C50   1.293       .  A
O29         Eu39   2.469   1_565  S
O30          C45   1.292       .  A
O30         Eu36   2.462   1_445  S
O31          C48   1.292       .  A
O31         Eu37   2.460       .  S
O32          C47   1.290       .  A
O32         Eu37   2.454   1_655  S
O33          C46   1.292       .  A
O33         Eu36   2.462       .  S
O34          C43   1.290       .  A
O34         Eu40   2.458   1_556  S
O35          C44   1.289       .  A
O35         Eu40   2.443   1_455  S
Eu36         O54   2.350       .  S
Eu36         O42   2.353   1_655  S
Eu37         O41   2.360   1_445  S
Eu37         O52   2.353   1_545  S
Eu38         O52   2.348   1_556  S
Eu38         O42   2.351       .  S
Eu39         O41   2.354   1_545  S
Eu39         O54   2.350   1_544  S
Eu40         O41   2.354       .  S
Eu40         O52   2.358   1_655  S
Eu40         O54   2.345   1_554  S
Eu40         O42   2.349   1_654  S
C43         C902   1.483       .  S
C44         C934   1.474       .  S
C45         C765   1.472       .  S
C46         C742   1.478       .  S
C47         C838   1.468       .  S
C48         C806   1.482       .  S
C49         C669   1.482       .  S
C50         C605   1.481       .  S
H51          O52   0.966       .  S
H53          O54   0.965       .  S
O55          C66   1.291       .  A
O55         Eu91   2.456       .  S
O56          C67   1.290       .  A
O56         Eu90   2.453   1_655  S
O57          C68   1.290       .  A
O57         Eu63   2.455       .  S
O58          C69   1.289       .  A
O58         Eu63   2.449   1_655  S
O59          C69   1.291       .  A
O59         Eu93   2.456       .  S
O60          C68   1.290       .  A
O60         Eu92   2.451       .  S
O61          C67   1.291   1_455  A
O61         Eu63   2.457       .  S
O62          C66   1.290       .  A
O62         Eu63   2.450   1_655  S
Eu63         O73   2.355   1_455  S
Eu63         O65   2.348       .  S
Eu63         O64   2.347   1_455  S
Eu63         O71   2.349       .  S
O64         Eu93   2.349       .  S
O64         Eu90   2.347   1_655  S
O65         Eu91   2.346   1_455  S
O65         Eu92   2.349       .  S
C66         C957   1.471       .  S
C67         C861   1.474       .  S
C68         C413   1.469       .  S
C69         C349   1.474       .  S
H70          O71   0.966       .  S
O71         Eu92   2.356       .  S
O71         Eu90   2.350       .  S
H72          O73   0.965       .  S
O73         Eu91   2.352       .  S
O73         Eu93   2.350       .  S
O74          C97   1.291   1_455  A
O74         Eu90   2.455       .  S
O75          C98   1.290       .  A
O75         Eu91   2.450       .  S
O76          C99   1.291       .  A
O76         Eu92   2.458       .  S
O77         C100   1.291       .  A
O77         Eu93   2.458       .  S
O78         C101   1.291       .  A
O78         Eu93   2.459       .  S
O79         C102   1.293       .  A
O79         Eu92   2.466       .  S
O80         C103   1.291       .  A
O80         Eu94   2.461   1_455  S
O81         C104   1.292       .  A
O81         Eu94   2.463       .  S
O82         C103   1.292       .  A
O82         Eu92   2.459       .  S
O83         C104   1.289       .  A
O83         Eu93   2.451       .  S
O84          C99   1.289       .  A
O84         Eu90   2.446       .  S
O85         C102   1.291       .  A
O85         Eu91   2.458   1_455  S
O86         C101   1.291       .  A
O86         Eu91   2.459       .  S
O87         C100   1.288       .  A
O87         Eu90   2.443   1_655  S
O88          C97   1.290       .  A
O88         Eu94   2.453       .  S
O89          C98   1.291       .  A
O89         Eu94   2.457       .  S
Eu90        O108   2.348   1_455  S
Eu90         O96   2.350       .  S
Eu91         O95   2.349       .  S
Eu91        O106   2.360   1_655  S
Eu92        O106   2.356       .  S
Eu92         O96   2.350       .  S
Eu93         O95   2.350       .  S
Eu93        O108   2.351       .  S
Eu94         O95   2.350       .  S
Eu94        O106   2.358   1_655  S
Eu94        O108   2.352       .  S
Eu94         O96   2.351   1_655  S
C97         C893   1.478       .  S
C98         C925   1.476       .  S
C99         C541   1.468       .  S
C100        C573   1.477       .  S
C101        C477   1.481       .  S
C102        C509   1.481       .  S
C103        C445   1.482       .  S
C104        C390   1.486       .  S
H105        O106   0.966       .  S
H107        O108   0.965       .  S
O109        C120   1.292       .  A
O109       Eu145   2.459       .  S
O110        C121   1.292       .  A
O110       Eu144   2.464       .  S
O111        C122   1.291       .  A
O111       Eu117   2.459   1_565  S
O112        C123   1.291       .  A
O112       Eu117   2.456       .  S
O113        C123   1.292       .  A
O113       Eu147   2.463       .  S
O114        C122   1.293       .  A
O114       Eu146   2.467       .  S
O115        C121   1.290       .  A
O115       Eu117   2.448       .  S
O116        C120   1.287   1_545  A
O116       Eu117   2.446       .  S
Eu117       O127   2.353       .  S
Eu117       O119   2.349   1_545  S
Eu117       O118   2.348       .  S
Eu117       O125   2.356   1_545  S
O118       Eu147   2.348       .  S
O118       Eu144   2.348       .  S
O119       Eu145   2.355       .  S
O119       Eu146   2.351       .  S
C120        C829   1.497       .  S
C121        C797   1.481       .  S
C122        C253   1.480       .  S
C123        C230   1.476       .  S
H124        O125   0.966       .  S
O125       Eu146   2.356       .  S
O125       Eu144   2.361   1_565  S
H126        O127   0.966       .  S
O127       Eu145   2.349   1_545  S
O127       Eu147   2.352       .  S
O128        C151   1.292       .  A
O128       Eu144   2.463       .  S
O129        C152   1.291       .  A
O129       Eu145   2.453       .  S
O130        C153   1.291       .  A
O130       Eu146   2.454       .  S
O131        C154   1.289       .  A
O131       Eu147   2.455       .  S
O132        C155   1.291       .  A
O132       Eu147   2.457       .  S
O133        C156   1.291       .  A
O133       Eu146   2.459       .  S
O134        C157   1.291       .  A
O134       Eu148   2.457       .  S
O135        C158   1.290       .  A
O135       Eu148   2.452   1_545  S
O136        C157   1.290       .  A
O136       Eu146   2.453       .  S
O137        C158   1.291       .  A
O137       Eu147   2.455       .  S
O138        C153   1.292       .  A
O138       Eu144   2.462   1_565  S
O139        C156   1.291       .  A
O139       Eu145   2.453       .  S
O140        C155   1.292       .  A
O140       Eu145   2.466   1_545  S
O141        C154   1.293       .  A
O141       Eu144   2.465       .  S
O142        C151   1.291       .  A
O142       Eu148   2.461   1_545  S
O143        C152   1.292       .  A
O143       Eu148   2.463       .  S
Eu144       O162   2.357       .  S
Eu144       O150   2.350   1_545  S
Eu145       O149   2.352   1_565  S
Eu145       O160   2.354       .  S
Eu146       O160   2.352       .  S
Eu146       O150   2.352       .  S
Eu147       O149   2.351       .  S
Eu147       O162   2.355       .  S
Eu148       O149   2.354   1_565  S
Eu148       O160   2.348       .  S
Eu148       O162   2.355   1_565  S
Eu148       O150   2.348       .  S
C151        C774   1.489       .  S
C152        C733   1.478       .  S
C153        C454   1.479       .  S
C154        C422   1.499       .  S
C155        C358   1.479       .  S
C156        C381   1.478       .  S
C157        C285   1.476       .  S
C158        C317   1.472       .  S
H159        O160   0.966       .  S
H161        O162   0.964       .  S
O163        C174   1.293   1_554  A
O163       Eu199   2.462       .  S
O164        C175   1.293       .  A
O164       Eu198   2.468       .  S
O165        C176   1.292       .  A
O165       Eu171   2.465   1_554  S
O166        C177   1.293       .  A
O166       Eu171   2.462       .  S
O167        C177   1.289       .  A
O167       Eu201   2.453       .  S
O168        C176   1.292       .  A
O168       Eu200   2.458       .  S
O169        C175   1.291       .  A
O169       Eu171   2.459       .  S
O170        C174   1.289       .  A
O170       Eu171   2.452       .  S
Eu171       O181   2.351       .  S
Eu171       O173   2.349   1_556  S
Eu171       O172   2.351       .  S
Eu171       O179   2.355   1_556  S
O172       Eu201   2.353       .  S
O172       Eu198   2.354       .  S
O173       Eu199   2.347       .  S
O173       Eu200   2.350       .  S
C174        C701   1.491       .  S
C175        C678   1.482       .  S
C176        C518   1.490       .  S
C177        C550   1.492       .  S
H178        O179   0.965       .  S
O179       Eu200   2.357       .  S
O179       Eu198   2.358   1_554  S
H180        O181   0.965       .  S
O181       Eu199   2.353   1_556  S
O181       Eu201   2.351       .  S
O182        C205   1.292       .  A
O182       Eu198   2.463       .  S
O183        C206   1.292       .  A
O183       Eu199   2.464       .  S
O184        C207   1.291       .  A
O184       Eu200   2.463       .  S
O185        C208   1.289       .  A
O185       Eu201   2.448       .  S
O186        C209   1.290       .  A
O186       Eu201   2.446       .  S
O187        C210   1.291       .  A
O187       Eu200   2.461       .  S
O188        C211   1.289       .  A
O188       Eu202   2.447       .  S
O189        C212   1.291       .  A
O189       Eu202   2.461   1_556  S
O190        C211   1.292       .  A
O190       Eu200   2.464       .  S
O191        C212   1.290       .  A
O191       Eu201   2.456       .  S
O192        C207   1.293       .  A
O192       Eu198   2.469   1_554  S
O193        C210   1.292       .  A
O193       Eu199   2.461       .  S
O194        C209   1.289       .  A
O194       Eu199   2.450   1_556  S
O195        C208   1.293       .  A
O195       Eu198   2.467       .  S
O196        C205   1.290       .  A
O196       Eu202   2.450   1_556  S
O197        C206   1.290       .  A
O197       Eu202   2.450       .  S
Eu198       O216   2.357       .  S
Eu198       O204   2.354   1_556  S
Eu199       O203   2.355   1_554  S
Eu199       O214   2.353       .  S
Eu200       O214   2.356       .  S
Eu200       O204   2.350       .  S
Eu201       O203   2.351       .  S
Eu201       O216   2.348       .  S
Eu202       O203   2.347   1_554  S
Eu202       O214   2.356       .  S
Eu202       O216   2.350   1_554  S
Eu202       O204   2.354       .  S
C205        C614   1.478       .  S
C206        C637   1.479       .  S
C207        C262   1.488       .  S
C208        C294   1.486       .  S
C209        C326   1.475       .  S
C210        C221   1.479       .  S
C211        C486   1.478       .  S
C212        C582   1.475       .  S
H213        O214   0.966       .  S
H215        O216   0.966       .  S
C217        C218   1.401       .  A
C217        C222   1.404       .  A
C217        H227   1.085       .  S
C218        C223   1.483       .  S
C218        C219   1.411       .  A
C219        C220   1.403       .  A
C219        C224   1.506       .  S
C220        C221   1.404       .  A
C220        H225   1.084       .  S
C221        C222   1.418       .  A
C222        C226   1.507       .  S
C223        C228   1.410       .  A
C223        C232   1.402       .  A
C224        H240   1.110       .  S
C224        H241   1.110       .  S
C224        H242   1.110       .  S
C226        H237   1.111       .  S
C226        H238   1.110       .  S
C226        H239   1.107       .  S
C228        C229   1.402       .  A
C228        C233   1.506       .  S
C229        C230   1.403       .  A
C229        H234   1.082       .  S
C230        C231   1.417       .  A
C231        C232   1.404       .  A
C231        C235   1.507       .  S
C232        H236   1.085       .  S
C233        H243   1.111       .  S
C233        H244   1.110       .  S
C233        H245   1.110       .  S
C235        H246   1.110       .  S
C235        H247   1.107       .  S
C235        H248   1.111       .  S
C249        C250   1.400       .  A
C249        C254   1.404       .  A
C249        H259   1.085       .  S
C250        C255   1.484       .  S
C250        C251   1.411       .  A
C251        C252   1.406       .  A
C251        C256   1.506       .  S
C252        C253   1.405       .  A
C252        H257   1.084       .  S
C253        C254   1.417       .  A
C254        C258   1.505       .  S
C255        C260   1.411       .  A
C255        C264   1.399       .  A
C256        H272   1.110       .  S
C256        H273   1.110       .  S
C256        H274   1.111       .  S
C258        H269   1.111       .  S
C258        H270   1.110       .  S
C258        H271   1.107       .  S
C260        C261   1.407       .  A
C260        C265   1.506       .  S
C261        C262   1.407       .  A
C261        H266   1.084       .  S
C262        C263   1.419       .  A
C263        C264   1.405       .  A
C263        C267   1.505       .  S
C264        H268   1.084       .  S
C265        H275   1.110       .  S
C265        H276   1.110       .  S
C265        H277   1.110       .  S
C267        H278   1.109       .  S
C267        H279   1.111       .  S
C267        H280   1.111       .  S
C281        C282   1.402       .  A
C281        C286   1.405       .  A
C281        H291   1.085       .  S
C282        C287   1.481       .  S
C282        C283   1.409       .  A
C283        C284   1.401       .  A
C283        C288   1.506       .  S
C284        C285   1.404       .  A
C284        H289   1.084       .  S
C285        C286   1.418       .  A
C286        C290   1.509       .  S
C287        C292   1.409       .  A
C287        C296   1.400       .  A
C288        H304   1.110       .  S
C288        H305   1.110       .  S
C288        H306   1.111       .  S
C290        H301   1.110       .  S
C290        H302   1.111       .  S
C290        H303   1.107       .  S
C292        C293   1.403       .  A
C292        C297   1.506       .  S
C293        C294   1.407       .  A
C293        H298   1.084       .  S
C294        C295   1.421       .  A
C295        C296   1.404       .  A
C295        C299   1.509       .  S
C296        H300   1.084       .  S
C297        H307   1.111       .  S
C297        H308   1.110       .  S
C297        H309   1.110       .  S
C299        H310   1.111       .  S
C299        H311   1.110       .  S
C299        H312   1.110       .  S
C313        C314   1.398       .  A
C313        C318   1.399       .  A
C313        H323   1.085       .  S
C314        C319   1.473       .  S
C314        C315   1.409       .  A
C315        C316   1.403       .  A
C315        C320   1.507       .  S
C316        C317   1.405       .  A
C316        H321   1.084       .  S
C317        C318   1.417       .  A
C318        C322   1.509       .  S
C319        C324   1.408       .  A
C319        C328   1.400       .  A
C320        H336   1.110       .  S
C320        H337   1.110       .  S
C320        H338   1.111       .  S
C322        H333   1.110       .  S
C322        H334   1.111       .  S
C322        H335   1.106       .  S
C324        C325   1.400       .  A
C324        C329   1.507       .  S
C325        C326   1.406       .  A
C325        H330   1.084       .  S
C326        C327   1.417       .  A
C327        C328   1.402       .  A
C327        C331   1.510       .  S
C328        H332   1.084       .  S
C329        H339   1.111       .  S
C329        H340   1.110       .  S
C329        H341   1.110       .  S
C331        H342   1.111       .  S
C331        H343   1.109       .  S
C331        H344   1.111       .  S
C345        C346   1.401       .  A
C345        C350   1.401       .  A
C345        H355   1.085       .  S
C346        C351   1.480       .  S
C346        C347   1.411       .  A
C347        C348   1.404       .  A
C347        C352   1.507       .  S
C348        C349   1.405       .  A
C348        H353   1.084       .  S
C349        C350   1.416       .  A
C350        C354   1.510       .  S
C351        C356   1.411       .  A
C351        C360   1.401       .  A
C352        H368   1.110       .  S
C352        H369   1.108       .  S
C352        H370   1.111       .  S
C354        H365   1.110       .  S
C354        H366   1.111       .  S
C354        H367   1.107       .  S
C356        C357   1.405       .  A
C356        C361   1.508       .  S
C357        C358   1.406       .  A
C357        H362   1.084       .  S
C358        C359   1.417       .  A
C359        C360   1.402       .  A
C359        C363   1.509       .  S
C360        H364   1.085       .  S
C361        H371   1.111       .  S
C361        H372   1.110       .  S
C361        H373   1.108       .  S
C363        H374   1.111       .  S
C363        H375   1.107       .  S
C363        H376   1.110       .  S
C377        C378   1.400       .  A
C377        C382   1.402       .  A
C377        H387   1.085       .  S
C378        C383   1.479       .  S
C378        C379   1.410       .  A
C379        C380   1.401       .  A
C379        C384   1.507       .  S
C380        C381   1.403       .  A
C380        H385   1.080       .  S
C381        C382   1.418       .  A
C382        C386   1.509       .  S
C383        C388   1.409       .  A
C383        C392   1.399       .  A
C384        H400   1.110       .  S
C384        H401   1.110       .  S
C384        H402   1.111       .  S
C386        H397   1.110       .  S
C386        H398   1.111       .  S
C386        H399   1.106       .  S
C388        C389   1.402       .  A
C388        C393   1.507       .  S
C389        C390   1.406       .  A
C389        H394   1.081       .  S
C390        C391   1.421       .  A
C391        C392   1.404       .  A
C391        C395   1.509       .  S
C392        H396   1.084       .  S
C393        H403   1.111       .  S
C393        H404   1.110       .  S
C393        H405   1.110       .  S
C395        H406   1.111       .  S
C395        H407   1.111       .  S
C395        H408   1.109       .  S
C409        C410   1.403       .  A
C409        C414   1.403       .  A
C409        H419   1.084       .  S
C410        C415   1.482       .  S
C410        C411   1.412       .  A
C411        C412   1.402       .  A
C411        C416   1.507       .  S
C412        C413   1.402       .  A
C412        H417   1.085       .  S
C413        C414   1.415       .  A
C414        C418   1.510       .  S
C415        C420   1.408       .  A
C415        C424   1.398       .  A
C416        H432   1.109       .  S
C416        H433   1.111       .  S
C416        H434   1.111       .  S
C418        H429   1.110       .  S
C418        H430   1.110       .  S
C418        H431   1.108       .  S
C420        C421   1.403       .  A
C420        C425   1.507       .  S
C421        C422   1.411       .  A
C421        H426   1.083       .  S
C422        C423   1.426       .  A
C423        C424   1.405       .  A
C423        C427   1.508       .  S
C424        H428   1.084       .  S
C425        H435   1.111       .  S
C425        H436   1.110       .  S
C425        H437   1.111       .  S
C427        H438   1.111       .  S
C427        H439   1.107       .  S
C427        H440   1.109       .  S
C441        C442   1.400       .  A
C441        C446   1.404       .  A
C441        H451   1.085       .  S
C442        C447   1.481       .  S
C442        C443   1.410       .  A
C443        C444   1.404       .  A
C443        C448   1.507       .  S
C444        C445   1.406       .  A
C444        H449   1.084       .  S
C445        C446   1.420       .  A
C446        C450   1.510       .  S
C447        C452   1.410       .  A
C447        C456   1.400       .  A
C448        H464   1.110       .  S
C448        H465   1.110       .  S
C448        H466   1.111       .  S
C450        H461   1.110       .  S
C450        H462   1.111       .  S
C450        H463   1.106       .  S
C452        C453   1.404       .  A
C452        C457   1.506       .  S
C453        C454   1.405       .  A
C453        H458   1.084       .  S
C454        C455   1.419       .  A
C455        C456   1.403       .  A
C455        C459   1.509       .  S
C456        H460   1.085       .  S
C457        H467   1.111       .  S
C457        H468   1.110       .  S
C457        H469   1.110       .  S
C459        H470   1.111       .  S
C459        H471   1.105       .  S
C459        H472   1.110       .  S
C473        C474   1.401       .  A
C473        C478   1.404       .  A
C473        H483   1.085       .  S
C474        C479   1.480       .  S
C474        C475   1.409       .  A
C475        C476   1.403       .  A
C475        C480   1.507       .  S
C476        C477   1.406       .  A
C476        H481   1.084       .  S
C477        C478   1.420       .  A
C478        C482   1.510       .  S
C479        C484   1.409       .  A
C479        C488   1.400       .  A
C480        H496   1.110       .  S
C480        H497   1.110       .  S
C480        H498   1.111       .  S
C482        H493   1.110       .  S
C482        H494   1.111       .  S
C482        H495   1.106       .  S
C484        C485   1.403       .  A
C484        C489   1.506       .  S
C485        C486   1.405       .  A
C485        H490   1.084       .  S
C486        C487   1.420       .  A
C487        C488   1.403       .  A
C487        C491   1.510       .  S
C488        H492   1.085       .  S
C489        H499   1.110       .  S
C489        H500   1.110       .  S
C489        H501   1.110       .  S
C491        H502   1.111       .  S
C491        H503   1.106       .  S
C491        H504   1.110       .  S
C505        C506   1.401       .  A
C505        C510   1.404       .  A
C505        H515   1.085       .  S
C506        C511   1.484       .  S
C506        C507   1.410       .  A
C507        C508   1.405       .  A
C507        C512   1.506       .  S
C508        C509   1.405       .  A
C508        H513   1.084       .  S
C509        C510   1.419       .  A
C510        C514   1.508       .  S
C511        C516   1.409       .  A
C511        C520   1.401       .  A
C512        H528   1.110       .  S
C512        H529   1.110       .  S
C512        H530   1.110       .  S
C514        H525   1.110       .  S
C514        H526   1.110       .  S
C514        H527   1.106       .  S
C516        C517   1.403       .  A
C516        C521   1.507       .  S
C517        C518   1.407       .  A
C517        H522   1.080       .  S
C518        C519   1.420       .  A
C519        C520   1.407       .  A
C519        C523   1.509       .  S
C520        H524   1.084       .  S
C521        H531   1.111       .  S
C521        H532   1.110       .  S
C521        H533   1.110       .  S
C523        H534   1.111       .  S
C523        H535   1.111       .  S
C523        H536   1.109       .  S
C537        C538   1.401       .  A
C537        C542   1.402       .  A
C537        H547   1.085       .  S
C538        C543   1.477       .  S
C538        C539   1.410       .  A
C539        C540   1.401       .  A
C539        C544   1.506       .  S
C540        C541   1.402       .  A
C540        H545   1.084       .  S
C541        C542   1.416       .  A
C542        C546   1.510       .  S
C543        C548   1.406       .  A
C543        C552   1.399       .  A
C544        H560   1.110       .  S
C544        H561   1.110       .  S
C544        H562   1.111       .  S
C546        H557   1.110       .  S
C546        H558   1.111       .  S
C546        H559   1.107       .  S
C548        C549   1.400       .  A
C548        C553   1.507       .  S
C549        C550   1.409       .  A
C549        H554   1.082       .  S
C550        C551   1.424       .  A
C551        C552   1.406       .  A
C551        C555   1.509       .  S
C552        H556   1.084       .  S
C553        H563   1.111       .  S
C553        H564   1.110       .  S
C553        H565   1.110       .  S
C555        H566   1.111       .  S
C555        H567   1.111       .  S
C555        H568   1.110       .  S
C569        C570   1.400       .  A
C569        C574   1.403       .  A
C569        H579   1.084       .  S
C570        C575   1.478       .  S
C570        C571   1.410       .  A
C571        C572   1.402       .  A
C571        C576   1.507       .  S
C572        C573   1.404       .  A
C572        H577   1.084       .  S
C573        C574   1.418       .  A
C574        C578   1.510       .  S
C575        C580   1.411       .  A
C575        C584   1.400       .  A
C576        H592   1.110       .  S
C576        H593   1.109       .  S
C576        H594   1.111       .  S
C578        H589   1.109       .  S
C578        H590   1.111       .  S
C578        H591   1.111       .  S
C580        C581   1.405       .  A
C580        C585   1.507       .  S
C581        C582   1.405       .  A
C581        H586   1.084       .  S
C582        C583   1.417       .  A
C583        C584   1.401       .  A
C583        C587   1.509       .  S
C584        H588   1.085       .  S
C585        H595   1.111       .  S
C585        H596   1.110       .  S
C585        H597   1.109       .  S
C587        H598   1.111       .  S
C587        H599   1.106       .  S
C587        H600   1.110       .  S
C601        C602   1.400   1_556  A
C601        C606   1.403       .  A
C601        H611   1.085       .  S
C602        C607   1.480       .  S
C602        C603   1.409       .  A
C603        C604   1.405       .  A
C603        C608   1.506       .  S
C604        C605   1.407       .  A
C604        H609   1.084       .  S
C605        C606   1.420   1_554  A
C606        C610   1.509       .  S
C607        C612   1.409       .  A
C607        C616   1.400   1_554  A
C608        H624   1.110       .  S
C608        H625   1.110       .  S
C608        H626   1.109       .  S
C610        H621   1.110       .  S
C610        H622   1.111       .  S
C610        H623   1.105       .  S
C612        C613   1.403       .  A
C612        C617   1.506       .  S
C613        C614   1.405   1_554  A
C613        H618   1.084       .  S
C614        C615   1.420       .  A
C615        C616   1.403       .  A
C615        C619   1.510       .  S
C616        H620   1.085       .  S
C617        H627   1.110       .  S
C617        H628   1.110       .  S
C617        H629   1.110       .  S
C619        H630   1.111       .  S
C619        H631   1.106       .  S
C619        H632   1.110       .  S
C633        C634   1.399       .  A
C633        C638   1.402       .  A
C633        H643   1.085       .  S
C634        C639   1.477       .  S
C634        C635   1.409   1_554  A
C635        C636   1.403       .  A
C635        C640   1.507       .  S
C636        C637   1.405   1_556  A
C636        H641   1.084       .  S
C637        C638   1.420       .  A
C638        C642   1.510       .  S
C639        C644   1.409   1_554  A
C639        C648   1.400       .  A
C640        H656   1.110       .  S
C640        H657   1.110       .  S
C640        H658   1.111       .  S
C642        H653   1.110       .  S
C642        H654   1.111       .  S
C642        H655   1.106       .  S
C644        C645   1.402       .  A
C644        C649   1.506       .  S
C645        C646   1.405   1_556  A
C645        H650   1.084       .  S
C646        C647   1.419       .  A
C647        C648   1.402       .  A
C647        C651   1.509       .  S
C648        H652   1.085       .  S
C649        H659   1.111       .  S
C649        H660   1.110       .  S
C649        H661   1.110       .  S
C651        H662   1.111       .  S
C651        H663   1.106       .  S
C651        H664   1.110       .  S
C665        C666   1.402   1_554  A
C665        C670   1.406       .  A
C665        H675   1.084       .  S
C666        C671   1.483       .  S
C666        C667   1.410       .  A
C667        C668   1.403       .  A
C667        C672   1.506       .  S
C668        C669   1.404       .  A
C668        H673   1.084       .  S
C669        C670   1.419   1_556  A
C670        C674   1.510       .  S
C671        C676   1.410   1_556  A
C671        C680   1.401       .  A
C672        H688   1.110       .  S
C672        H689   1.110       .  S
C672        H690   1.111       .  S
C674        H685   1.111       .  S
C674        H686   1.111       .  S
C674        H687   1.109       .  S
C676        C677   1.404       .  A
C676        C681   1.506       .  S
C677        C678   1.405   1_554  A
C677        H682   1.084       .  S
C678        C679   1.419       .  A
C679        C680   1.405       .  A
C679        C683   1.507       .  S
C680        H684   1.085       .  S
C681        H691   1.111       .  S
C681        H692   1.110       .  S
C681        H693   1.110       .  S
C683        H694   1.110       .  S
C683        H695   1.107       .  S
C683        H696   1.111       .  S
C697        C698   1.398       .  A
C697        C702   1.403       .  A
C697        H707   1.084       .  S
C698        C703   1.478       .  S
C698        C699   1.407   1_556  A
C699        C700   1.402       .  A
C699        C704   1.507       .  S
C700        C701   1.409   1_554  A
C700        H705   1.082       .  S
C701        C702   1.423       .  A
C702        C706   1.509       .  S
C703        C708   1.410   1_556  A
C703        C712   1.401       .  A
C704        H720   1.110       .  S
C704        H721   1.111       .  S
C704        H722   1.111       .  S
C706        H717   1.110       .  S
C706        H718   1.111       .  S
C706        H719   1.110       .  S
C708        C709   1.402       .  A
C708        C713   1.507       .  S
C709        C710   1.403   1_554  A
C709        H714   1.084       .  S
C710        C711   1.416       .  A
C711        C712   1.402       .  A
C711        C715   1.510       .  S
C712        H716   1.085       .  S
C713        H723   1.111       .  S
C713        H724   1.110       .  S
C713        H725   1.110       .  S
C715        H726   1.111       .  S
C715        H727   1.107       .  S
C715        H728   1.110       .  S
C729        C730   1.401       .  A
C729        C734   1.404       .  A
C729        H739   1.085       .  S
C730        C735   1.480       .  S
C730        C731   1.410   1_565  A
C731        C732   1.402       .  A
C731        C736   1.507       .  S
C732        C733   1.405   1_545  A
C732        H737   1.084       .  S
C733        C734   1.418       .  A
C734        C738   1.509       .  S
C735        C740   1.411   1_565  A
C735        C744   1.400       .  A
C736        H752   1.110       .  S
C736        H753   1.109       .  S
C736        H754   1.111       .  S
C738        H749   1.110       .  S
C738        H750   1.111       .  S
C738        H751   1.107       .  S
C740        C741   1.405       .  A
C740        C745   1.507       .  S
C741        C742   1.405   1_545  A
C741        H746   1.084       .  S
C742        C743   1.418       .  A
C743        C744   1.402       .  A
C743        C747   1.510       .  S
C744        H748   1.085       .  S
C745        H755   1.111       .  S
C745        H756   1.110       .  S
C745        H757   1.109       .  S
C747        H758   1.111       .  S
C747        H759   1.106       .  S
C747        H760   1.110       .  S
C761        C762   1.402       .  A
C761        C766   1.404       .  A
C761        H771   1.084       .  S
C762        C767   1.481       .  S
C762        C763   1.411   1_545  A
C763        C764   1.403       .  A
C763        C768   1.506       .  S
C764        C765   1.403   1_565  A
C764        H769   1.085       .  S
C765        C766   1.416       .  A
C766        C770   1.510       .  S
C767        C772   1.409   1_545  A
C767        C776   1.399       .  A
C768        H784   1.110       .  S
C768        H785   1.110       .  S
C768        H786   1.111       .  S
C770        H781   1.110       .  S
C770        H782   1.111       .  S
C770        H783   1.107       .  S
C772        C773   1.405       .  A
C772        C777   1.507       .  S
C773        C774   1.408   1_565  A
C773        H778   1.084       .  S
C774        C775   1.421       .  A
C775        C776   1.405       .  A
C775        C779   1.509       .  S
C776        H780   1.084       .  S
C777        H787   1.111       .  S
C777        H788   1.110       .  S
C777        H789   1.110       .  S
C779        H790   1.111       .  S
C779        H791   1.111       .  S
C779        H792   1.109       .  S
C793        C794   1.401       .  A
C793        C798   1.403       .  A
C793        H803   1.085       .  S
C794        C799   1.480       .  S
C794        C795   1.409   1_545  A
C795        C796   1.403       .  A
C795        C800   1.506       .  S
C796        C797   1.407   1_565  A
C796        H801   1.084       .  S
C797        C798   1.419       .  A
C798        C802   1.509       .  S
C799        C804   1.409   1_545  A
C799        C808   1.401       .  A
C800        H816   1.110       .  S
C800        H817   1.110       .  S
C800        H818   1.111       .  S
C802        H813   1.110       .  S
C802        H814   1.111       .  S
C802        H815   1.106       .  S
C804        C805   1.401       .  A
C804        C809   1.507       .  S
C805        C806   1.404   1_565  A
C805        H810   1.081       .  S
C806        C807   1.420       .  A
C807        C808   1.405       .  A
C807        C811   1.509       .  S
C808        H812   1.085       .  S
C809        H819   1.111       .  S
C809        H820   1.110       .  S
C809        H821   1.110       .  S
C811        H822   1.111       .  S
C811        H823   1.105       .  S
C811        H824   1.110       .  S
C825        C826   1.397   1_545  A
C825        C830   1.401   1_545  A
C825        H835   1.084       .  S
C826        C831   1.481       .  S
C826        C827   1.409       .  A
C827        C828   1.404       .  A
C827        C832   1.507       .  S
C828        C829   1.412       .  A
C828        H833   1.083       .  S
C829        C830   1.426       .  A
C830        C834   1.510       .  S
C831        C836   1.413       .  A
C831        C840   1.403   1_565  A
C832        H848   1.109   1_565  S
C832        H849   1.110       .  S
C832        H850   1.111       .  S
C834        H845   1.111       .  S
C834        H846   1.111       .  S
C834        H847   1.108   1_565  S
C836        C837   1.400       .  A
C836        C841   1.508       .  S
C837        C838   1.400   1_565  A
C837        H842   1.085       .  S
C838        C839   1.415       .  A
C839        C840   1.403       .  A
C839        C843   1.509       .  S
C840        H844   1.084       .  S
C841        H851   1.111       .  S
C841        H852   1.109       .  S
C841        H853   1.110       .  S
C843        H854   1.110       .  S
C843        H855   1.108       .  S
C843        H856   1.110       .  S
C857        C858   1.401   1_655  A
C857        C862   1.403       .  A
C857        H867   1.085       .  S
C858        C863   1.480       .  S
C858        C859   1.410       .  A
C859        C860   1.402       .  A
C859        C864   1.506       .  S
C860        C861   1.404   1_455  A
C860        H865   1.084       .  S
C861        C862   1.417       .  A
C862        C866   1.509       .  S
C863        C868   1.408       .  A
C863        C872   1.399   1_455  A
C864        H880   1.110       .  S
C864        H881   1.110       .  S
C864        H882   1.111       .  S
C866        H877   1.110       .  S
C866        H878   1.111       .  S
C866        H879   1.107       .  S
C868        C869   1.403       .  A
C868        C873   1.506       .  S
C869        C870   1.409   1_455  A
C869        H874   1.084       .  S
C870        C871   1.423       .  A
C871        C872   1.404       .  A
C871        C875   1.509       .  S
C872        H876   1.084       .  S
C873        H883   1.111       .  S
C873        H884   1.110       .  S
C873        H885   1.110       .  S
C875        H886   1.111       .  S
C875        H887   1.110       .  S
C875        H888   1.111       .  S
C889        C890   1.400       .  A
C889        C894   1.403       .  A
C889        H899   1.084       .  S
C890        C895   1.479       .  S
C890        C891   1.410   1_655  A
C891        C892   1.403       .  A
C891        C896   1.506       .  S
C892        C893   1.405   1_455  A
C892        H897   1.084       .  S
C893        C894   1.417       .  A
C894        C898   1.509       .  S
C895        C900   1.409   1_655  A
C895        C904   1.399       .  A
C896        H912   1.110       .  S
C896        H913   1.110       .  S
C896        H914   1.111       .  S
C898        H909   1.109       .  S
C898        H910   1.111       .  S
C898        H911   1.111       .  S
C900        C901   1.403       .  A
C900        C905   1.507       .  S
C901        C902   1.407   1_455  A
C901        H906   1.084       .  S
C902        C903   1.419       .  A
C903        C904   1.404       .  A
C903        C907   1.509       .  S
C904        H908   1.084       .  S
C905        H915   1.111       .  S
C905        H916   1.110       .  S
C905        H917   1.111       .  S
C907        H918   1.111       .  S
C907        H919   1.109       .  S
C907        H920   1.111       .  S
C921        C922   1.400       .  A
C921        C926   1.401       .  A
C921        H931   1.085       .  S
C922        C927   1.477   1_655  S
C922        C923   1.410   1_655  A
C923        C924   1.402       .  A
C923        C928   1.506       .  S
C924        C925   1.405   1_455  A
C924        H929   1.084       .  S
C925        C926   1.417       .  A
C926        C930   1.507       .  S
C927        C932   1.409   1_455  A
C927        C936   1.401       .  A
C928        H944   1.110       .  S
C928        H945   1.110       .  S
C928        H946   1.111       .  S
C930        H941   1.111       .  S
C930        H942   1.110       .  S
C930        H943   1.106       .  S
C932        C933   1.401       .  A
C932        C937   1.506       .  S
C933        C934   1.404   1_655  A
C933        H938   1.085       .  S
C934        C935   1.416       .  A
C935        C936   1.402       .  A
C935        C939   1.506       .  S
C936        H940   1.085       .  S
C937        H947   1.110       .  S
C937        H948   1.110       .  S
C937        H949   1.110       .  S
C939        H950   1.110       .  S
C939        H951   1.106       .  S
C939        H952   1.111       .  S
C953        C954   1.401   1_655  A
C953        C958   1.403       .  A
C953        H963   1.084       .  S
C954        C959   1.479       .  S
C954        C955   1.410       .  A
C955        C956   1.402       .  A
C955        C960   1.506       .  S
C956        C957   1.403   1_455  A
C956        H961   1.085       .  S
C957        C958   1.417       .  A
C958        C962   1.510       .  S
C959        C964   1.408       .  A
C959        C968   1.400   1_455  A
C960        H976   1.110       .  S
C960        H977   1.110       .  S
C960        H978   1.111       .  S
C962        H973   1.110       .  S
C962        H974   1.111       .  S
C962        H975   1.107       .  S
C964        C965   1.403       .  A
C964        C969   1.506       .  S
C965        C966   1.407       .  A
C965        H970   1.084       .  S
C966        C967   1.421   1_455  A
C967        C968   1.405       .  A
C967        C971   1.509       .  S
C968        H972   1.084       .  S
C969        H979   1.111       .  S
C969        H980   1.110       .  S
C969        H981   1.110       .  S
C971        H982   1.111       .  S
C971        H983   1.111       .  S
C971        H984   1.109       .  S
