geometry optimzed in LAMMPS
_audit_creation_date              2020-11-30 
_audit_creation_method            'lammps2cif' 
_symmetry_space_group_name_H-M    'P1' 
_symmetry_Int_Tables_number       1 
_symmetry_cell_setting            triclinic 
loop_ 
_symmetry_equiv_pos_as_xyz 
  x,y,z 
_cell_length_a                    58.32655542 
_cell_length_b                    58.31386965782302 
_cell_length_c                    49.515885403483914 
_cell_angle_alpha                 89.61307346554759 
_cell_angle_beta                  90.48405827711358 
_cell_angle_gamma                 89.8467000544253 
loop_ 
_atom_site_label 
_atom_site_type_symbol 
_atom_site_fract_x 
_atom_site_fract_y 
_atom_site_fract_z 
_atom_site_charge 
O1          O  0.36396290  0.68046078  0.37447193    -0.57900
C2          C  0.31621317  0.63900366  0.35938353     0.74800
O3          O  0.38568418  0.61510335  0.32411471    -0.59000
C4          C  0.37827128  0.68919543  0.35837440     0.74700
C5          C  0.38024810  0.62049160  0.40724933     0.77100
Cd6        Cd  0.36535424  0.64139276  0.35673257     1.37500
O7          O  0.32651160  0.65806988  0.35836069    -0.57900
O8          O  0.39280395  0.63499946  0.39528129    -0.56700
C9          C  0.37330447  0.62109082  0.30405539     0.77100
O10         O  0.36258847  0.61421500  0.39442886    -0.59000
O11         O  0.32877621  0.62132572  0.35927780    -0.57500
O12         O  0.38752741  0.67554276  0.34186491    -0.57500
O13         O  0.35899790  0.63686291  0.30854148    -0.56700
O14         O  0.31300953  0.63218994  0.67486971    -0.57900
C15         C  0.35225599  0.67684678  0.66271279     0.74800
O16         O  0.35863680  0.60573664  0.70402060    -0.59000
C17         C  0.30517554  0.61392231  0.66485413     0.74700
C18         C  0.36542586  0.61565346  0.60646001     0.77100
Cd19       Cd  0.35247557  0.62745888  0.66126145     1.37500
O20         O  0.33544377  0.66509568  0.67080200    -0.57900
O21         O  0.35235814  0.63204231  0.61268646    -0.56700
C22         C  0.37691231  0.61578636  0.71097344     0.77100
O23         O  0.37338134  0.60390693  0.62610318    -0.59000
O24         O  0.36925816  0.66563623  0.65404501    -0.57500
O25         O  0.31954899  0.60093947  0.65338134    -0.57500
O26         O  0.38551901  0.62879836  0.69323617    -0.56700
C27         C  0.44564290  0.68138298  0.92589249     0.86400
C28         C  0.43048846  0.67118581  0.94831843    -0.53800
C29         C  0.42824410  0.64787787  0.94736843     0.09400
C30         C  0.44095364  0.63667333  0.92360050     0.20300
C31         C  0.46836712  0.66783610  0.92778104    -0.54500
C32         C  0.46615491  0.64441474  0.92656036     0.09500
C33         C  0.43401127  0.67257123  0.89978210    -0.54000
C34         C  0.43191279  0.64935840  0.89834734     0.10000
H35         H  0.42207464  0.68145313  0.96354617     0.14600
H36         H  0.43838281  0.61790334  0.92218931     0.00300
H37         H  0.48486494  0.67627769  0.92963508     0.14900
H38         H  0.42742842  0.68327704  0.88355788     0.14700
C39         C  0.30399077  0.53362624  0.09966244     0.86400
C40         C  0.31368952  0.55030877  0.07831941    -0.53800
C41         C  0.33687867  0.55328221  0.07989965     0.09400
C42         C  0.34846518  0.53963587  0.10296435     0.20300
C43         C  0.31812569  0.51148434  0.09666614    -0.54500
C44         C  0.34131785  0.51461760  0.09832574     0.09500
C45         C  0.31247690  0.54398061  0.12663301    -0.54000
C46         C  0.33571560  0.54651922  0.12871039     0.10000
H47         H  0.30318354  0.55906826  0.06324695     0.14600
H48         H  0.36732694  0.54204179  0.10423184     0.00300
H49         H  0.31042107  0.49478030  0.09345519     0.14900
H50         H  0.30142155  0.54984075  0.14260297     0.14700
C51         C  0.48574755  0.35808877  0.07906772     0.86400
C52         C  0.49755008  0.36615284  0.10546727    -0.53800
C53         C  0.49878236  0.38934600  0.10823769     0.09400
C54         C  0.48937334  0.40268011  0.08383947     0.20300
C55         C  0.46261405  0.37102753  0.07862605    -0.54500
C56         C  0.46453265  0.39432644  0.08119487     0.09500
C57         C  0.50017872  0.36962982  0.05690646    -0.54000
C58         C  0.50186039  0.39293414  0.05916694     0.10000
H59         H  0.50440493  0.35515606  0.12123067     0.14600
H60         H  0.49104285  0.42155622  0.08591605     0.00300
H61         H  0.44618926  0.36233853  0.07779894     0.14900
H62         H  0.50834124  0.36020501  0.04075726     0.14700
C63         C  0.62980881  0.50606205  0.91241674     0.86400
C64         C  0.62220600  0.49749505  0.88420026    -0.53800
C65         C  0.59902708  0.49595401  0.88025677     0.09400
C66         C  0.58527367  0.50268344  0.90543275     0.20300
C67         C  0.61664163  0.52888667  0.91577228    -0.54500
C68         C  0.59341817  0.52710903  0.91200950     0.09500
C69         C  0.61810310  0.48934375  0.93203582    -0.54000
C70         C  0.59491355  0.48775738  0.92875124     0.10000
H71         H  0.63363094  0.49270653  0.86818209     0.14600
H72         H  0.56638836  0.50158855  0.90298872     0.00300
H73         H  0.62497731  0.54502602  0.92044381     0.14900
H74         H  0.62730970  0.47999678  0.94779541     0.14700
O75         O  0.61635679  0.39544651  0.34069344    -0.57900
C76         C  0.57325025  0.35649139  0.34519719     0.74800
O77         O  0.55423137  0.39978915  0.38566417    -0.59000
C78         C  0.62468683  0.41474541  0.34670173     0.74700
C79         C  0.55847808  0.42027978  0.29149538     0.77100
Cd80       Cd  0.57621271  0.40557729  0.34404740     1.37500
O81         O  0.59099157  0.36730676  0.35236737    -0.57900
O82         O  0.57803461  0.41154055  0.29524403    -0.56700
C83         C  0.55850256  0.41901706  0.39618312     0.77100
O84         O  0.54688930  0.42362493  0.31263684    -0.59000
O85         O  0.55622460  0.36855242  0.33762358    -0.57500
O86         O  0.61029308  0.43057088  0.35121808    -0.57500
O87         O  0.56953703  0.43302030  0.38161614    -0.56700
O88         O  0.58966338  0.36661836  0.64665185    -0.57900
C89         C  0.62813006  0.41151032  0.64208486     0.74800
O90         O  0.54764692  0.41598410  0.61271543    -0.59000
C91         C  0.56972444  0.35827981  0.64746326     0.74700
C92         C  0.56975560  0.42863857  0.69726457     0.77100
Cd93       Cd  0.57911898  0.40687645  0.64592978     1.37500
O94         O  0.61742469  0.39495723  0.63153458    -0.57900
O95         O  0.57488946  0.40761774  0.69550943    -0.56700
C96         C  0.56102300  0.42433559  0.59523023     0.77100
O97         O  0.56703977  0.43914157  0.67502020    -0.59000
O98         O  0.61602848  0.42623471  0.65415413    -0.57500
O99         O  0.55336220  0.37263640  0.64779467    -0.57500
O100        O  0.58178222  0.42596967  0.60232195    -0.56700
O101        O  0.32003387  0.90117186  0.32668572    -0.57900
C102        C  0.36779915  0.86055134  0.34588067     0.74800
O103        O  0.37776984  0.91718200  0.30617389    -0.59000
C104        C  0.30805470  0.90689508  0.34675569     0.74700
C105        C  0.37293450  0.92168979  0.40158993     0.77100
Cd106      Cd  0.35722767  0.90882145  0.34840131     1.37500
O107        O  0.34755686  0.86819391  0.34773384    -0.57900
O108        O  0.35579776  0.93121520  0.39040943    -0.56700
C109        C  0.36942804  0.93697418  0.30247152     0.77100
O110        O  0.38419578  0.90812237  0.38693929    -0.59000
O111        O  0.38351600  0.87546422  0.34476646    -0.57500
O112        O  0.31897467  0.91348834  0.36748050    -0.57500
O113        O  0.35756189  0.94471187  0.32158957    -0.56700
O114        O  0.31692654  0.92480449  0.64773934    -0.57900
C115        C  0.34993546  0.84957281  0.66145759     0.74800
O116        O  0.35237710  0.89142210  0.60887739    -0.59000
C117        C  0.30350107  0.91416018  0.66342399     0.74700
C118        C  0.37698273  0.91201530  0.70471962     0.77100
Cd119      Cd  0.35040343  0.89889976  0.65722399     1.37500
O120        O  0.36851561  0.86071609  0.66117126    -0.57900
O121        O  0.35941029  0.92340059  0.69755224    -0.56700
C122        C  0.36479903  0.90815450  0.60211238     0.77100
O123        O  0.38316743  0.89660830  0.68852941    -0.59000
O124        O  0.33170489  0.86130841  0.65982973    -0.57500
O125        O  0.31213325  0.89749784  0.67648477    -0.57500
O126        O  0.37108089  0.92116210  0.62119513    -0.56700
C127        C  0.30397398  0.00720463  0.08693083     0.86400
C128        C  0.31210517  0.99743764  0.11430152    -0.53800
C129        C  0.33537449  0.99525971  0.11726080     0.09400
C130        C  0.34860307  0.00309411  0.09200163     0.20300
C131        C  0.31717718  0.02991837  0.08364326    -0.54500
C132        C  0.34038993  0.02774471  0.08637894     0.09500
C133        C  0.31517636  0.99099169  0.06608408    -0.54000
C134        C  0.33845178  0.98892556  0.06880722     0.10000
H135        H  0.30021671  0.99281910  0.13018963     0.14600
H136        H  0.36749994  0.00131665  0.09370355     0.00300
H137        H  0.30888547  0.04628151  0.07952014     0.14900
H138        H  0.30622927  0.98208932  0.05010706     0.14700
C139        C  0.44960153  0.85761428  0.92472730     0.86400
C140        C  0.43866568  0.86375151  0.89718137    -0.53800
C141        C  0.43653812  0.88676142  0.89207278     0.09400
C142        C  0.44527691  0.90176070  0.91542691     0.20300
C143        C  0.47244780  0.87093635  0.92527120    -0.54500
C144        C  0.47018568  0.89396102  0.92037529     0.09500
C145        C  0.43458812  0.87046559  0.94539283    -0.54000
C146        C  0.43222901  0.89343921  0.94047237     0.10000
H147        H  0.43345980  0.85083710  0.88267827     0.14600
H148        H  0.44353989  0.92045395  0.91157874     0.00300
H149        H  0.48895637  0.86287856  0.92920493     0.14900
H150        H  0.42657726  0.86278922  0.96282373     0.14700
C151        C  0.62945174  0.03557817  0.90537131     0.86400
C152        C  0.61790140  0.05150473  0.92578230    -0.53800
C153        C  0.59471504  0.05348840  0.92279646     0.09400
C154        C  0.58496931  0.03962978  0.89901940     0.20300
C155        C  0.61628835  0.01271302  0.90723220    -0.54500
C156        C  0.59297193  0.01476418  0.90433256     0.09500
C157        C  0.62187288  0.04532427  0.87757195    -0.54000
C158        C  0.59868220  0.04737832  0.87424934     0.10000
H159        H  0.62734958  0.06030053  0.94160225     0.14600
H160        H  0.56616118  0.04165227  0.89633336     0.00300
H161        H  0.62485037  0.99631315  0.91000022     0.14900
H162        H  0.63323281  0.04992943  0.86130050     0.14700
C163        C  0.48650791  0.18296158  0.07191304     0.86400
C164        C  0.50161153  0.17103844  0.05097921    -0.53800
C165        C  0.50506225  0.14821276  0.05557424     0.09400
C166        C  0.49259615  0.13893270  0.08064860     0.20300
C167        C  0.46410735  0.16866099  0.07119282    -0.54500
C168        C  0.46726365  0.14558194  0.07570782     0.09500
C169        C  0.49688192  0.17689438  0.09966917    -0.54000
C170        C  0.50031182  0.15406603  0.10439288     0.10000
H171        H  0.50829392  0.17972512  0.03326312     0.14600
H172        H  0.49568214  0.12042586  0.08438268     0.00300
H173        H  0.44718424  0.17550907  0.06719794     0.14900
H174        H  0.50033971  0.18975989  0.11492710     0.14700
O175        O  0.62747772  0.14310932  0.33047522    -0.57900
C176        C  0.57961659  0.18444165  0.33846027     0.74800
O177        O  0.55278536  0.12680390  0.31116050    -0.59000
C178        C  0.63490347  0.12340918  0.33703966     0.74700
C179        C  0.57748942  0.12305528  0.39429801     0.77100
Cd180      Cd  0.58716870  0.13591916  0.33947711     1.37500
O181        O  0.59877332  0.17543660  0.33310975    -0.57900
O182        O  0.58846237  0.14086102  0.38783431    -0.56700
C183        C  0.56409087  0.12281863  0.28997772     0.77100
O184        O  0.57009330  0.11081440  0.37500990    -0.59000
O185        O  0.56350028  0.17075832  0.34393044    -0.57500
O186        O  0.61992224  0.10878357  0.34386758    -0.57500
O187        O  0.58561717  0.12254016  0.29282758    -0.56700
O188        O  0.61791419  0.15591141  0.64123099    -0.57900
C189        C  0.56600542  0.18692209  0.63903237     0.74800
O190        O  0.58163617  0.11249410  0.60449382    -0.59000
C191        C  0.62867912  0.13708888  0.64311985     0.74700
C192        C  0.56948316  0.12157883  0.69578332     0.77100
Cd193      Cd  0.57929804  0.13944345  0.64245173     1.37500
O194        O  0.58348497  0.17892828  0.62734650    -0.57900
O195        O  0.58236104  0.13849620  0.69128593    -0.56700
C196        C  0.56391416  0.11941922  0.59201314     0.77100
O197        O  0.55956855  0.11316211  0.67523937    -0.59000
O198        O  0.55389917  0.17256941  0.65186938    -0.57500
O199        O  0.61644910  0.11921168  0.64382401    -0.57500
O200        O  0.55188587  0.13405958  0.60425734    -0.56700
O201        O  0.09701059  0.66714544  0.33950503    -0.57900
C202        C  0.14378081  0.63084642  0.36000276     0.74800
O203        O  0.06665828  0.61385863  0.39431617    -0.59000
C204        C  0.08125860  0.67639365  0.35307844     0.74700
C205        C  0.08179440  0.60209249  0.31275889     0.77100
Cd206      Cd  0.09444807  0.62877976  0.35984540     1.37500
O207        O  0.13159626  0.64645411  0.37023216    -0.57900
O208        O  0.07359696  0.62190334  0.31666573    -0.56700
C209        C  0.08160835  0.61165944  0.41287720     0.77100
O210        O  0.09386964  0.59394917  0.33185088    -0.59000
O211        O  0.13309617  0.61426527  0.34946319    -0.57500
O212        O  0.07064953  0.66325676  0.36915244    -0.57500
O213        O  0.10192327  0.61630149  0.40620633    -0.56700
O214        O  0.12566865  0.63467568  0.64602713    -0.57900
C215        C  0.08284758  0.67990808  0.66533482     0.74800
O216        O  0.07556051  0.60053260  0.62961624    -0.59000
C217        C  0.13406903  0.61768960  0.65868504     0.74700
C218        C  0.06613941  0.61983380  0.71489091     0.77100
Cd219      Cd  0.08641628  0.63075931  0.66284047     1.37500
O220        O  0.10173668  0.66945940  0.66841214    -0.57900
O221        O  0.08621379  0.62751851  0.71213884    -0.56700
C222        C  0.06922188  0.61450951  0.61129393     0.77100
O223        O  0.05551951  0.61543606  0.69309463    -0.59000
O224        O  0.06544103  0.66748645  0.66110484    -0.57500
O225        O  0.12025148  0.60629158  0.67308353    -0.57500
O226        O  0.06886464  0.63540067  0.61789456    -0.56700
C227        C  0.98358810  0.68620985  0.92077461     0.86400
C228        C  0.99524024  0.67706801  0.89510532    -0.53800
C229        C  0.99714357  0.65381124  0.89381074     0.09400
C230        C  0.98811939  0.64147752  0.91912635     0.20300
C231        C  0.96074543  0.67294877  0.92207060    -0.54500
C232        C  0.96304303  0.64950871  0.92151584     0.09500
C233        C  0.99847626  0.67597052  0.94379363    -0.54000
C234        C  0.00058968  0.65258517  0.94329593     0.10000
H235        H  0.00206696  0.68756808  0.87902535     0.14600
H236        H  0.99022936  0.62259779  0.91841499     0.00300
H237        H  0.94423590  0.68152774  0.92278299     0.14900
H238        H  0.00638795  0.68632398  0.95943054     0.14700
C239        C  0.12939118  0.53555289  0.08959983     0.86400
C240        C  0.12439167  0.54433713  0.11802224    -0.53800
C241        C  0.10184752  0.54838331  0.12315524     0.09400
C242        C  0.08592431  0.54346397  0.09890115     0.20300
C243        C  0.11383820  0.51441014  0.08614640    -0.54500
C244        C  0.09111798  0.51846067  0.09118415     0.09500
C245        C  0.11823877  0.55361405  0.07051173    -0.54000
C246        C  0.09543048  0.55751848  0.07504749     0.10000
H247        H  0.13774080  0.54665452  0.13319873     0.14600
H248        H  0.06763112  0.54692648  0.10327976     0.00300
H249        H  0.12023614  0.49771678  0.08015802     0.14900
H250        H  0.12686060  0.56198884  0.05394367     0.14700
C251        C  0.94927763  0.36169136  0.11074130     0.86400
C252        C  0.93278408  0.37222641  0.08952439    -0.53800
C253        C  0.92967167  0.39539130  0.09166533     0.09400
C254        C  0.94275876  0.40599461  0.11564441     0.20300
C255        C  0.97124964  0.37595073  0.10868593    -0.54500
C256        C  0.96791951  0.39907219  0.11079579     0.09500
C257        C  0.93868284  0.36895483  0.13784501    -0.54000
C258        C  0.93501799  0.39197235  0.14044710     0.10000
H259        H  0.92452639  0.36226918  0.07376956     0.14600
H260        H  0.94018037  0.42478553  0.11749365     0.00300
H261        H  0.98800655  0.36837290  0.10534385     0.14900
H262        H  0.93369136  0.35726740  0.15373914     0.14700
C263        C  0.80437041  0.50614419  0.93625341     0.86400
C264        C  0.81676933  0.49093870  0.95728465    -0.53800
C265        C  0.83982236  0.48829684  0.95326039     0.09400
C266        C  0.84863459  0.50190440  0.92852758     0.20300
C267        C  0.81779697  0.52912952  0.93742880    -0.54500
C268        C  0.84089515  0.52677038  0.93345804     0.09500
C269        C  0.81090580  0.49633938  0.90868330    -0.54000
C270        C  0.83382857  0.49405023  0.90437780     0.10000
H271        H  0.80785399  0.48285558  0.97398688     0.14600
H272        H  0.86729029  0.50014270  0.92485025     0.00300
H273        H  0.81034905  0.54591730  0.94038477     0.14900
H274        H  0.79812570  0.49107296  0.89392552     0.14700
O275        O  0.84522978  0.37371755  0.34780490    -0.57900
C276        C  0.79653645  0.41815655  0.36787127     0.74800
O277        O  0.87305872  0.41229897  0.40936070    -0.59000
C278        C  0.84486013  0.36133608  0.36883406     0.74700
C279        C  0.87100724  0.42188581  0.32343950     0.77100
Cd280      Cd  0.84525596  0.41048831  0.37127029     1.37500
O281        O  0.80551450  0.39960121  0.37605820    -0.57900
O282        O  0.85062287  0.42881797  0.32661075    -0.56700
C283        C  0.86203015  0.42666237  0.42320969     0.77100
O284        O  0.88031034  0.41253273  0.34388092    -0.59000
O285        O  0.81028408  0.43392234  0.36090993    -0.57500
O286        O  0.84480121  0.37186442  0.39106625    -0.57500
O287        O  0.84477462  0.43561986  0.41158681    -0.56700
O288        O  0.80827929  0.38369186  0.66684117    -0.57900
C289        C  0.85823705  0.34873369  0.68281897     0.74800
O290        O  0.86044032  0.42373815  0.63893667    -0.59000
C291        C  0.79949816  0.40339292  0.66396327     0.74700
C292        C  0.85754705  0.41620376  0.72793275     0.77100
Cd293      Cd  0.84774734  0.39640068  0.67503407     1.37500
O294        O  0.83802720  0.35652922  0.68080797    -0.57900
O295        O  0.84131857  0.40253673  0.72313102    -0.56700
C296        C  0.86674381  0.40844379  0.62249646     0.77100
O297        O  0.87018145  0.42093686  0.70794821    -0.59000
O298        O  0.87424292  0.36340393  0.68168008    -0.57500
O299        O  0.81321062  0.42007644  0.66595331    -0.57500
O300        O  0.86582003  0.38808951  0.63127124    -0.56700
O301        O  0.83337169  0.17645385  0.35181009    -0.57900
C302        C  0.80595673  0.12425333  0.35475115     0.74800
O303        O  0.86620034  0.11578187  0.32181257    -0.59000
C304        C  0.84974238  0.18899226  0.35970312     0.74700
C305        C  0.86970238  0.12576567  0.41441043     0.77100
Cd306      Cd  0.85316387  0.13965170  0.36080002     1.37500
O307        O  0.81846311  0.12905948  0.33480319    -0.57900
O308        O  0.86293009  0.14570822  0.40829177    -0.56700
C309        C  0.88037539  0.13029880  0.31280531     0.77100
O310        O  0.86971757  0.11138939  0.39524101    -0.59000
O311        O  0.81542100  0.12604662  0.37771884    -0.57500
O312        O  0.86751002  0.17855352  0.36797176    -0.57500
O313        O  0.88399095  0.14737510  0.32782058    -0.56700
O314        O  0.84637495  0.16743883  0.69117253    -0.57900
C315        C  0.80119153  0.13582817  0.66381832     0.74800
O316        O  0.87907696  0.12225988  0.63145600    -0.59000
C317        C  0.86313514  0.17738762  0.68018773     0.74700
C318        C  0.86010664  0.10046084  0.71314748     0.77100
Cd319      Cd  0.85033607  0.13076700  0.66794366     1.37500
O320        O  0.81466127  0.14729681  0.64908201    -0.57900
O321        O  0.87192564  0.11833487  0.70929963    -0.56700
C322        C  0.86428918  0.11504675  0.61466933     0.77100
O323        O  0.84619562  0.09531626  0.69447948    -0.59000
O324        O  0.81056356  0.12272463  0.68114799    -0.57500
O325        O  0.87473086  0.16547813  0.66392250    -0.57500
O326        O  0.84407144  0.11375828  0.62339500    -0.56700
C327        C  0.12833935  0.00622427  0.09827909     0.86400
C328        C  0.11884457  0.99144636  0.07500717    -0.53800
C329        C  0.09556777  0.98835107  0.07540484     0.09400
C330        C  0.08385544  0.99986626  0.09954247     0.20300
C331        C  0.11405582  0.02852066  0.09700434    -0.54500
C332        C  0.09074035  0.02529316  0.09736338     0.09500
C333        C  0.11967720  0.99365303  0.12381127    -0.54000
C334        C  0.09659377  0.99043451  0.12448036     0.10000
H335        H  0.12971846  0.98381796  0.05980146     0.14600
H336        H  0.06506295  0.99700776  0.10006337     0.00300
H337        H  0.12188731  0.04536627  0.09614452     0.14900
H338        H  0.13027559  0.98703114  0.14008840     0.14700
C339        C  0.98550529  0.86194084  0.92187927     0.86400
C340        C  0.00157940  0.87286270  0.94293950    -0.53800
C341        C  0.00515985  0.89587112  0.93935390     0.09400
C342        C  0.99198388  0.90604483  0.91499457     0.20300
C343        C  0.96338128  0.87661233  0.92356587    -0.54500
C344        C  0.96678192  0.89968519  0.91996941     0.09500
C345        C  0.99556291  0.86855659  0.89430092    -0.54000
C346        C  0.99903398  0.89145397  0.89078113     0.10000
H347        H  0.00884428  0.86320557  0.95977901     0.14600
H348        H  0.99508364  0.92463998  0.91198740     0.00300
H349        H  0.94639579  0.86995586  0.92712929     0.14900
H350        H  0.99909467  0.85618065  0.87855682     0.14700
C351        C  0.80261954  0.03617553  0.93376427     0.86400
C352        C  0.80875314  0.04693145  0.90642165    -0.53800
C353        C  0.83154073  0.05040705  0.90256673     0.09400
C354        C  0.84650847  0.04308033  0.92675291     0.20300
C355        C  0.81744068  0.01424923  0.93588330    -0.54500
C356        C  0.84039995  0.01776572  0.93174183     0.09500
C357        C  0.81360651  0.05245466  0.95470595    -0.54000
C358        C  0.83652399  0.05590060  0.95100841     0.10000
H359        H  0.79603172  0.05057842  0.89080611     0.14600
H360        H  0.86501909  0.04637867  0.92348299     0.00300
H361        H  0.81026775  0.99751502  0.94037037     0.14900
H362        H  0.80482407  0.06037040  0.97139858     0.14700
C363        C  0.95107437  0.18770732  0.09353395     0.86400
C364        C  0.94086160  0.18150579  0.12111068    -0.53800
C365        C  0.93703571  0.15868997  0.12514267     0.09400
C366        C  0.94417510  0.14379071  0.10116527     0.20300
C367        C  0.97290969  0.17285336  0.09133020    -0.54500
C368        C  0.96938674  0.14988794  0.09539983     0.09500
C369        C  0.93457250  0.17665372  0.07269161    -0.54000
C370        C  0.93084002  0.15376180  0.07687978     0.10000
H371        H  0.93690587  0.19426390  0.13628549     0.14600
H372        H  0.94131582  0.12521089  0.10468476     0.00300
H373        H  0.98957729  0.17978890  0.08618539     0.14900
H374        H  0.92702274  0.18544780  0.05546134     0.14700
O375        O  0.09873508  0.85820353  0.35753144    -0.57900
C376        C  0.13553051  0.90046314  0.35237194     0.74800
O377        O  0.07821628  0.93235630  0.32590775    -0.59000
C378        C  0.07922709  0.84901372  0.35500603     0.74700
C379        C  0.06995236  0.91753117  0.40389806     0.77100
Cd380      Cd  0.08632689  0.89818885  0.35392631     1.37500
O381        O  0.12335908  0.90296826  0.33128483    -0.57900
O382        O  0.05992627  0.90091053  0.39259079    -0.56700
C383        C  0.07125059  0.92177908  0.30522716     0.77100
O384        O  0.08622958  0.92640023  0.39081808    -0.59000
O385        O  0.12480763  0.89718784  0.37414338    -0.57500
O386        O  0.06251064  0.86273952  0.35183760    -0.57500
O387        O  0.06913620  0.90030097  0.30796864    -0.56700
O388        O  0.09496067  0.86474350  0.67475967    -0.57900
C389        C  0.13152531  0.91325659  0.66340260     0.74800
O390        O  0.06393586  0.92627536  0.62179206    -0.59000
C391        C  0.08081590  0.85302586  0.66124533     0.74700
C392        C  0.05608484  0.91437210  0.70382253     0.77100
Cd393      Cd  0.08352079  0.90225912  0.65769284     1.37500
O394        O  0.12335466  0.89344487  0.66709915    -0.57900
O395        O  0.07547298  0.92344726  0.69988255    -0.56700
C396        C  0.07466982  0.91672822  0.60273099     0.77100
O397        O  0.04837905  0.90221491  0.68478456    -0.59000
O398        O  0.11707502  0.92902963  0.65828578    -0.57500
O399        O  0.06750224  0.86423651  0.64565224    -0.57500
O400        O  0.08818205  0.90070246  0.60937964    -0.56700
C401        C  0.06448623  0.92499669  0.43179189    -0.19900
C402        C  0.04768312  0.91376296  0.44748599     0.36300
C403        C  0.04729138  0.91718931  0.47557514    -0.25900
C404        C  0.06289549  0.93201752  0.48817785     0.02700
C405        C  0.07789440  0.94515284  0.47215690     0.27600
C406        C  0.07861783  0.94144704  0.44417345    -0.25000
N407        N  0.03180134  0.89811257  0.43516065    -0.82400
H408        H  0.03563706  0.90723811  0.48786956     0.13400
C409        C  0.06572681  0.93101812  0.51803573     0.02700
N410        N  0.09302736  0.96146731  0.48461198    -0.81000
H411        H  0.09117225  0.95059619  0.43226669     0.18200
C412        C  0.08732993  0.92504998  0.52857136    -0.25800
C413        C  0.09075000  0.92154459  0.55631434     0.36200
C414        C  0.07200601  0.92351771  0.57403204    -0.19800
C415        C  0.05053783  0.93043353  0.56375998    -0.25100
C416        C  0.04719319  0.93415608  0.53581610     0.27600
H417        H  0.10153654  0.92251102  0.51493619     0.13300
N418        N  0.11321189  0.91579411  0.56656017    -0.82400
H419        H  0.03620572  0.93211067  0.57738955     0.18200
N420        N  0.02505817  0.94072680  0.52536750    -0.81000
H421        H  0.12503727  0.91481085  0.55085952     0.33800
H422        H  0.11856779  0.92924163  0.57895982     0.38300
H423        H  0.01326450  0.94221913  0.54104428     0.33800
H424        H  0.02666832  0.95704530  0.51672638     0.30500
H425        H  0.10315685  0.96957333  0.47009991     0.33800
H426        H  0.08284713  0.97421156  0.49323067     0.30500
H427        H  0.02130411  0.90766811  0.42204103     0.38400
H428        H  0.02099766  0.89090903  0.44964128     0.33800
C429        C  0.91652125  0.13958179  0.05853771    -0.19900
C430        C  0.90031800  0.12397046  0.06876125     0.36300
C431        C  0.88762478  0.11024996  0.05091161    -0.25900
C432        C  0.89082799  0.11188844  0.02292751     0.02700
C433        C  0.90709092  0.12738820  0.01258646     0.27600
C434        C  0.91963723  0.14126099  0.03048696    -0.25000
N435        N  0.89626267  0.12244321  0.09720166    -0.82400
H436        H  0.87506666  0.09839713  0.05889946     0.13400
C437        C  0.87701065  0.09733202  0.00459239     0.02700
N438        N  0.91096884  0.12871106  0.98398619    -0.81000
H439        H  0.93233631  0.15299237  0.02258233     0.18200
C440        C  0.86047742  0.10761379  0.98765448    -0.25800
C441        C  0.84716913  0.09435740  0.96985204     0.36200
C442        C  0.85045825  0.07043414  0.96915762    -0.19800
C443        C  0.86689280  0.06014377  0.98617034    -0.25100
C444        C  0.88038336  0.07340566  0.00376811     0.27600
H445        H  0.85800733  0.12602380  0.98835567     0.13300
N446        N  0.83034586  0.10502028  0.95246080    -0.82400
H447        H  0.86893014  0.04170811  0.98605397     0.18200
N448        N  0.89752607  0.06275497  0.02073756    -0.81000
H449        H  0.82997105  0.12273585  0.95552265     0.33800
H450        H  0.83552399  0.10252845  0.93252347     0.38300
H451        H  0.89782249  0.04503120  0.01771083     0.33800
H452        H  0.91350833  0.06894350  0.01468523     0.30500
H453        H  0.92347763  0.14096535  0.97964824     0.33800
H454        H  0.91758075  0.11288389  0.97792444     0.30500
H455        H  0.87898931  0.12618074  0.10057080     0.38400
H456        H  0.89931877  0.10552125  0.10338250     0.33800
C457        C  0.00636096  0.90111262  0.86463180    -0.19900
C458        C  0.02964072  0.90439474  0.85882156     0.36300
C459        C  0.03613844  0.91082482  0.83257387    -0.25900
C460        C  0.01957714  0.91423661  0.81209159     0.02700
C461        C  0.99610264  0.91227057  0.81851035     0.27600
C462        C  0.98978134  0.90524663  0.84458310    -0.25000
N463        N  0.04670767  0.90033708  0.87926899    -0.82400
H464        H  0.05420661  0.91206139  0.82788662     0.13400
C465        C  0.02699143  0.91672504  0.78350731     0.02700
N466        N  0.97883745  0.91687673  0.79829031    -0.81000
H467        H  0.97187236  0.90242346  0.84914127     0.18200
C468        C  0.01881578  0.90089232  0.76455281    -0.25800
C469        C  0.02707580  0.90051213  0.73802497     0.36200
C470        C  0.04403990  0.91648092  0.73007015    -0.19800
C471        C  0.05151448  0.93298319  0.74877466    -0.25100
C472        C  0.04312200  0.93331194  0.77536877     0.27600
H473        H  0.00668030  0.88793002  0.77089545     0.13300
N474        N  0.01903730  0.88318857  0.71972219    -0.82400
H475        H  0.06442114  0.94531621  0.74285278     0.18200
N476        N  0.05115705  0.95016153  0.79423792    -0.81000
H477        H  0.00574882  0.87369439  0.72834818     0.33800
H478        H  0.03251987  0.87164655  0.71679500     0.38300
H479        H  0.06307797  0.96105186  0.78512971     0.33800
H480        H  0.03713734  0.96035668  0.79947861     0.30500
H481        H  0.96245068  0.91454136  0.80622926     0.33800
H482        H  0.98008257  0.93420570  0.79294845     0.30500
H483        H  0.05616864  0.91540037  0.88166610     0.38400
H484        H  0.05780430  0.88757547  0.87240030     0.33800
C485        C  0.94793050  0.91687219  0.92206318    -0.19900
C486        C  0.94606334  0.93575887  0.90415507     0.36300
C487        C  0.92820653  0.95165461  0.90718125    -0.25900
C488        C  0.91197052  0.94896338  0.92758914     0.02700
C489        C  0.91362985  0.93023124  0.94554803     0.27600
C490        C  0.93158988  0.91434041  0.94260740    -0.25000
N491        N  0.96175547  0.93859220  0.88234440    -0.82400
H492        H  0.92684426  0.96607129  0.89331597     0.13400
C493        C  0.89338399  0.96606075  0.92991443     0.02700
N494        N  0.89709375  0.92749694  0.96667609    -0.81000
H495        H  0.93303677  0.90011390  0.95670209     0.18200
C496        C  0.87172221  0.96125004  0.91896553    -0.25800
C497        C  0.85406346  0.97773941  0.91925788     0.36200
C498        C  0.85806488  0.99922355  0.93156890    -0.19800
C499        C  0.87986060  0.00376958  0.94261532    -0.25100
C500        C  0.89754054  0.98743832  0.94189339     0.27600
H501        H  0.86885226  0.94482151  0.90942786     0.13300
N502        N  0.83252929  0.97305390  0.90611723    -0.82400
H503        H  0.88328120  0.02017820  0.95174974     0.18200
N504        N  0.91981818  0.99254060  0.95293219    -0.81000
H505        H  0.83245347  0.95651912  0.89807504     0.33800
H506        H  0.83087654  0.98441153  0.88978045     0.38300
H507        H  0.92015823  0.00915018  0.96075678     0.33800
H508        H  0.92273979  0.98136940  0.96920762     0.30500
H509        H  0.90061741  0.91271007  0.97804824     0.33800
H510        H  0.89890681  0.94136785  0.97978391     0.30500
H511        H  0.95232327  0.93890994  0.86428662     0.38400
H512        H  0.96974090  0.95451562  0.88445603     0.33800
C513        C  0.08555302  0.97866178  0.14758552    -0.19900
C514        C  0.09173499  0.95600941  0.15473017     0.36300
C515        C  0.08458232  0.94686250  0.17961969    -0.25900
C516        C  0.07121018  0.95988841  0.19734868     0.02700
C517        C  0.06372483  0.98194790  0.18927970     0.27600
C518        C  0.07112682  0.99117861  0.16453107    -0.25000
N519        N  0.10594216  0.94275232  0.13706957    -0.82400
H520        H  0.09036318  0.92993040  0.18578616     0.13400
C521        C  0.06760226  0.95131649  0.22537628     0.02700
N522        N  0.04924692  0.99513064  0.20669692    -0.81000
H523        H  0.06670492  0.00865438  0.15924173     0.18200
C524        C  0.07592545  0.96436501  0.24701473    -0.25800
C525        C  0.07564041  0.95589331  0.27364443     0.36200
C526        C  0.06739888  0.93345523  0.27872374    -0.19800
C527        C  0.05792768  0.92091709  0.25716995    -0.25100
C528        C  0.05775580  0.92971309  0.23061538     0.27600
H529        H  0.08344424  0.98099725  0.24296223     0.13300
N530        N  0.08467442  0.96966104  0.29521855    -0.82400
H531        H  0.05124964  0.90387769  0.26088082     0.18200
N532        N  0.04804574  0.91664379  0.20885673    -0.81000
H533        H  0.09100743  0.98521004  0.28778724     0.33800
H534        H  0.07098815  0.97384129  0.30778403     0.38300
H535        H  0.04155521  0.90108131  0.21604143     0.33800
H536        H  0.03407744  0.92592527  0.20110111     0.30500
H537        H  0.04538033  0.01104286  0.19790981     0.33800
H538        H  0.03372441  0.98634430  0.20850066     0.30500
H539        H  0.09673256  0.94025876  0.11912147     0.38400
H540        H  0.10908195  0.92647945  0.14531622     0.33800
C541        C  0.98799631  0.13238711  0.09339465    -0.19900
C542        C  0.98452158  0.11156959  0.07947751     0.36300
C543        C  0.00178429  0.09468717  0.07992337    -0.25900
C544        C  0.02277515  0.09847393  0.09307376     0.02700
C545        C  0.02679868  0.11966069  0.10578015     0.27600
C546        C  0.00933444  0.13640315  0.10589798    -0.25000
N547        N  0.96375074  0.10784695  0.06434627    -0.82400
H548        H  0.99897570  0.07851933  0.06976813     0.13400
C549        C  0.04008550  0.07975626  0.09402937     0.02700
N550        N  0.04846922  0.12391424  0.11881538    -0.81000
H551        H  0.01217892  0.15241595  0.11636500     0.18200
C552        C  0.05980132  0.08123553  0.07812489    -0.25800
C553        C  0.07629280  0.06350269  0.07826944     0.36200
C554        C  0.07343910  0.04430306  0.09558386    -0.19800
C555        C  0.05332042  0.04275743  0.11095145    -0.25100
C556        C  0.03664163  0.06020965  0.11031411     0.27600
H557        H  0.06204794  0.09606850  0.06512662     0.13300
N558        N  0.09544112  0.06459945  0.06023098    -0.82400
H559        H  0.05058025  0.02799384  0.12377247     0.18200
N560        N  0.01619507  0.05821520  0.12617973    -0.81000
H561        H  0.09491548  0.07971665  0.04877436     0.33800
H562        H  0.09381711  0.05105247  0.04661192     0.38300
H563        H  0.01612432  0.04269658  0.13688086     0.33800
H564        H  0.01652984  0.07125640  0.14056135     0.30500
H565        H  0.04875821  0.14037736  0.12705126     0.33800
H566        H  0.05006715  0.11240079  0.13499848     0.30500
H567        H  0.96345839  0.11975695  0.04846249     0.38400
H568        H  0.96380335  0.09161919  0.05551518     0.33800
C569        C  0.08257729  0.97503481  0.05476154    -0.19900
C570        C  0.08669321  0.97760535  0.02678160     0.36300
C571        C  0.07356388  0.96495553  0.00815570    -0.25900
C572        C  0.05629530  0.95005754  0.01685940     0.02700
C573        C  0.05208779  0.94747941  0.04468534     0.27600
C574        C  0.06525964  0.96001518  0.06335570    -0.25000
N575        N  0.10382980  0.99333250  0.01732640    -0.82400
H576        H  0.07669565  0.96677839  0.98670718     0.13400
C577        C  0.04326351  0.93666894  0.99658848     0.02700
N578        N  0.03478933  0.93179638  0.05384933    -0.81000
H579        H  0.06217838  0.95782264  0.08476458     0.18200
C580        C  0.05180105  0.91532513  0.98858711    -0.25800
C581        C  0.04012676  0.90205298  0.96927745     0.36200
C582        C  0.01904926  0.91002049  0.95838470    -0.19800
C583        C  0.01082816  0.93170951  0.96602215    -0.25100
C584        C  0.02282507  0.94519217  0.98489077     0.27600
H585        H  0.06780232  0.90914889  0.99725638     0.13300
N586        N  0.04984280  0.88076986  0.96031346    -0.82400
H587        H  0.99475020  0.93798921  0.95768318     0.18200
N588        N  0.01451046  0.96756801  0.99200278    -0.81000
H589        H  0.06539977  0.87743851  0.97023471     0.33800
H590        H  0.05357490  0.88261555  0.93979156     0.38300
H591        H  0.99949129  0.97147113  0.98121830     0.33800
H592        H  0.01008899  0.96714378  0.01240201     0.30500
H593        H  0.03412317  0.93158943  0.07494797     0.33800
H594        H  0.01889959  0.93792822  0.04703480     0.30500
H595        H  0.09862651  0.00985642  0.02261325     0.38400
H596        H  0.10475048  0.99307638  0.99624654     0.33800
C597        C  0.84046675  0.05804357  0.87607593    -0.19900
C598        C  0.83049867  0.07685442  0.86236707     0.36300
C599        C  0.83608855  0.08117231  0.83539169    -0.25900
C600        C  0.85166523  0.06711964  0.82178551     0.02700
C601        C  0.86271583  0.04903728  0.83582437     0.27600
C602        C  0.85707143  0.04472320  0.86301663    -0.25000
N603        N  0.81458683  0.09154975  0.87580920    -0.82400
H604        H  0.82794560  0.09539961  0.82482984     0.13400
C605        C  0.85548866  0.07152803  0.79266258     0.02700
N606        N  0.87900711  0.03476922  0.82219725    -0.81000
H607        H  0.86469849  0.03020954  0.87355575     0.18200
C608        C  0.87649964  0.08049038  0.78404328    -0.25800
C609        C  0.87917054  0.08867286  0.75740772     0.36200
C610        C  0.86045490  0.08765565  0.73914802    -0.19800
C611        C  0.84007894  0.07694660  0.74735324    -0.25100
C612        C  0.83734112  0.06906208  0.77396054     0.27600
H613        H  0.89043924  0.08214812  0.79849598     0.13300
N614        N  0.90053138  0.09856799  0.74909753    -0.82400
H615        H  0.82565818  0.07602899  0.73346272     0.18200
N616        N  0.81587973  0.05942962  0.78245092    -0.81000
H617        H  0.91244986  0.09817351  0.76499248     0.33800
H618        H  0.90717226  0.08820597  0.73387373     0.38300
H619        H  0.80413034  0.05913879  0.76638109     0.33800
H620        H  0.81892928  0.04235845  0.78798921     0.30500
H621        H  0.88558866  0.02226270  0.83538467     0.33800
H622        H  0.87021219  0.02606161  0.80692030     0.30500
H623        H  0.82106717  0.10824613  0.87525779     0.38400
H624        H  0.79914016  0.09141263  0.86494764     0.33800
C625        C  0.86976539  0.10984914  0.58591603    -0.19900
C626        C  0.85306816  0.10050236  0.56823500     0.36300
C627        C  0.85702364  0.10035447  0.54024538    -0.25900
C628        C  0.87767138  0.10836507  0.52933587     0.02700
C629        C  0.89521858  0.11563638  0.54719081     0.27600
C630        C  0.89099810  0.11656209  0.57520161    -0.25000
N631        N  0.83184722  0.09171871  0.57859487    -0.82400
H632        H  0.84349312  0.09469955  0.52675779     0.13400
C633        C  0.87956728  0.11106684  0.49928780     0.02700
N634        N  0.91710216  0.12245135  0.53674448    -0.81000
H635        H  0.90409556  0.12331021  0.58857510     0.18200
C636        C  0.88558959  0.13253964  0.48851760    -0.25800
C637        C  0.88431672  0.13702598  0.46058665     0.36200
C638        C  0.87610198  0.11992392  0.44286810    -0.19800
C639        C  0.87152357  0.09796905  0.45332488    -0.25100
C640        C  0.87333113  0.09332177  0.48131374     0.27600
H641        H  0.89044048  0.14623674  0.50206679     0.13300
N642        N  0.89092533  0.15910320  0.45018859    -0.82400
H643        H  0.86554126  0.08468844  0.43981404     0.18200
N644        N  0.86838876  0.07079308  0.49163226    -0.81000
H645        H  0.89646004  0.16977422  0.46580625     0.33800
H646        H  0.90504754  0.15658806  0.43765247     0.38300
H647        H  0.86399151  0.05973746  0.47589892     0.33800
H648        H  0.88347634  0.06432444  0.50036895     0.30500
H649        H  0.92810498  0.12738769  0.55242519     0.33800
H650        H  0.92451497  0.10804464  0.52784084     0.30500
H651        H  0.83580360  0.07737471  0.59057283     0.38400
H652        H  0.82130690  0.08589382  0.56292216     0.33800
C653        C  0.89113880  0.12858095  0.28556221    -0.19900
C654        C  0.88200776  0.11445032  0.26489519     0.36300
C655        C  0.89067028  0.11619419  0.23841872    -0.25900
C656        C  0.90800547  0.13186422  0.23204056     0.02700
C657        C  0.91773101  0.14530364  0.25266806     0.27600
C658        C  0.90926751  0.14350492  0.27914397    -0.25000
N659        N  0.86329609  0.09916784  0.27039744    -0.82400
H660        H  0.88313424  0.10606963  0.22238007     0.13400
C661        C  0.91392702  0.13625185  0.20332755     0.02700
N662        N  0.93544994  0.16152627  0.24633594    -0.81000
H663        H  0.91639509  0.15443390  0.29468111     0.18200
C664        C  0.90148906  0.15300977  0.18900814    -0.25800
C665        C  0.90734173  0.15930686  0.16256551     0.36200
C666        C  0.92708766  0.14948680  0.15061908    -0.19800
C667        C  0.93867892  0.13168975  0.16435478    -0.25100
C668        C  0.93218676  0.12485869  0.19058157     0.27600
H669        H  0.88702425  0.16130555  0.19852182     0.13300
N670        N  0.89274376  0.17548036  0.14854515    -0.82400
H671        H  0.95344901  0.12376639  0.15506855     0.18200
N672        N  0.94414618  0.10659946  0.20437634    -0.81000
H673        H  0.87614318  0.16875189  0.14849546     0.33800
H674        H  0.89702695  0.17681253  0.12818973     0.38300
H675        H  0.95692008  0.09979261  0.19205811     0.33800
H676        H  0.95248446  0.11356380  0.22115907     0.30500
H677        H  0.94043333  0.17051714  0.26359534     0.33800
H678        H  0.94983381  0.15228624  0.24012890     0.30500
H679        H  0.84883985  0.10924144  0.27423152     0.38400
H680        H  0.85928735  0.08944586  0.25334066     0.33800
C681        C  0.86794609  0.20196651  0.68496215    -0.19900
C682        C  0.85926888  0.21337650  0.70782323     0.36300
C683        C  0.86047360  0.23737786  0.70906639    -0.25900
C684        C  0.87008188  0.25019387  0.68797501     0.02700
C685        C  0.88017398  0.23877322  0.66604124     0.27600
C686        C  0.87925211  0.21470704  0.66492806    -0.25000
N687        N  0.84882112  0.20063397  0.72939709    -0.82400
H688        H  0.85314643  0.24625734  0.72612222     0.13400
C689        C  0.86737693  0.27547575  0.68792071     0.02700
N690        N  0.89031722  0.25168592  0.64439844    -0.81000
H691        H  0.88609445  0.20601247  0.64747552     0.18200
C692        C  0.88672964  0.28968501  0.68714852    -0.25800
C693        C  0.88447239  0.31373081  0.68608310     0.36200
C694        C  0.86229423  0.32367379  0.68577157    -0.19800
C695        C  0.84303511  0.30925651  0.68703271    -0.25100
C696        C  0.84531350  0.28536159  0.68780508     0.27600
H697        H  0.90363781  0.28193925  0.68729363     0.13300
N698        N  0.90457237  0.32788904  0.68487319    -0.82400
H699        H  0.82595449  0.31659941  0.68677331     0.18200
N700        N  0.82526402  0.27103680  0.68782809    -0.81000
H701        H  0.91938363  0.31777996  0.68403564     0.33800
H702        H  0.90558776  0.33694700  0.70298541     0.38300
H703        H  0.81032131  0.28098567  0.68786138     0.33800
H704        H  0.82509017  0.26185826  0.66976018     0.30500
H705        H  0.89702749  0.24069458  0.62984725     0.33800
H706        H  0.87724964  0.26110640  0.63486623     0.30500
H707        H  0.86155017  0.19033423  0.73826486     0.38400
H708        H  0.84303093  0.21165924  0.74446065     0.33800
C709        C  0.84473104  0.33599697  0.36721453    -0.19900
C710        C  0.84229128  0.32191769  0.39040879     0.36300
C711        C  0.84356878  0.29801746  0.38773868    -0.25900
C712        C  0.84661134  0.28794304  0.36244683     0.02700
C713        C  0.84841748  0.30178538  0.33921873     0.27600
C714        C  0.84749627  0.32570082  0.34182182    -0.25000
N715        N  0.83843096  0.33178449  0.41652000    -0.82400
H716        H  0.84192883  0.28710091  0.40541684     0.13400
C717        C  0.84786787  0.26275489  0.36074418     0.02700
N718        N  0.85139360  0.29146924  0.31318672    -0.81000
H719        H  0.84923469  0.33631898  0.32392200     0.18200
C720        C  0.82971633  0.25076009  0.34882704    -0.25800
C721        C  0.82967487  0.22667447  0.34827918     0.36200
C722        C  0.84850269  0.21442718  0.35957656    -0.19800
C723        C  0.86686351  0.22672419  0.37102602    -0.25100
C724        C  0.86671183  0.25075115  0.37172735     0.27600
H725        H  0.81529337  0.26026990  0.34047310     0.13300
N726        N  0.81060848  0.21479693  0.33630453    -0.82400
H727        H  0.88140396  0.21758616  0.37963618     0.18200
N728        N  0.88555881  0.26307109  0.38358765    -0.81000
H729        H  0.79900548  0.22642435  0.32756033     0.33800
H730        H  0.80179419  0.20661448  0.35191685     0.38300
H731        H  0.89805062  0.25169491  0.39093133     0.33800
H732        H  0.89325029  0.27267320  0.36823753     0.30500
H733        H  0.85228860  0.30406210  0.29810042     0.33800
H734        H  0.86721684  0.28300037  0.31341571     0.30500
H735        H  0.82219760  0.33945075  0.41600887     0.38400
H736        H  0.83780590  0.31902286  0.43142355     0.33800
C737        C  0.86801458  0.43100015  0.45208478    -0.19900
C738        C  0.85196334  0.44062492  0.47010756     0.36300
C739        C  0.85612059  0.43934145  0.49811288    -0.25900
C740        C  0.87613750  0.42916404  0.50866514     0.02700
C741        C  0.89302749  0.42130925  0.49068279     0.27600
C742        C  0.88873776  0.42216238  0.46264671    -0.25000
N743        N  0.83088472  0.45047944  0.46015329    -0.82400
H744        H  0.84311699  0.44537303  0.51187531     0.13400
C745        C  0.87782288  0.42476427  0.53836860     0.02700
N746        N  0.91418639  0.41192814  0.50101802    -0.81000
H747        H  0.90130199  0.41504597  0.44903897     0.18200
C748        C  0.88071387  0.40215521  0.54770535    -0.25800
C749        C  0.87882310  0.39654583  0.57529321     0.36200
C750        C  0.87337689  0.41393755  0.59409304    -0.19800
C751        C  0.87188856  0.43677179  0.58485919    -0.25100
C752        C  0.87418749  0.44235945  0.55728891     0.27600
H753        H  0.88351074  0.38860708  0.53321963     0.13300
N754        N  0.88160451  0.37311596  0.58398190    -0.82400
H755        H  0.86810432  0.45028878  0.59905272     0.18200
N756        N  0.87229340  0.46578093  0.54830228    -0.81000
H757        H  0.88477676  0.36244744  0.56752651     0.33800
H758        H  0.89626018  0.37233840  0.59625925     0.38300
H759        H  0.86947784  0.47665862  0.56464812     0.33800
H760        H  0.88807776  0.47044130  0.54008605     0.30500
H761        H  0.92474710  0.40678141  0.48519697     0.33800
H762        H  0.92282489  0.42508115  0.51107384     0.30500
H763        H  0.83508556  0.46533509  0.44936580     0.38400
H764        H  0.82054566  0.45573996  0.47612338     0.33800
C765        C  0.84293164  0.48442852  0.87872083    -0.19900
C766        C  0.83288308  0.49014746  0.85339054     0.36300
C767        C  0.83936471  0.47805940  0.83027089    -0.25900
C768        C  0.85602389  0.46079719  0.83159154     0.02700
C769        C  0.86736813  0.45617505  0.85631071     0.27600
C770        C  0.86064990  0.46804063  0.87972230    -0.25000
N771        N  0.81594665  0.50803801  0.85118609    -0.82400
H772        H  0.83104780  0.48180430  0.81107583     0.13400
C773        C  0.85995405  0.44707256  0.80694463     0.02700
N774        N  0.88566645  0.43963089  0.85751023    -0.81000
H775        H  0.86862448  0.46380877  0.89896335     0.18200
C776        C  0.87380618  0.45588942  0.78633408    -0.25800
C777        C  0.87443582  0.44554515  0.76065272     0.36200
C778        C  0.86058937  0.42613129  0.75545490    -0.19800
C779        C  0.84754270  0.41685944  0.77668373    -0.25100
C780        C  0.84695760  0.42717210  0.80222017     0.27600
H781        H  0.88349024  0.47140346  0.79003075     0.13300
N782        N  0.88822176  0.45535799  0.73964960    -0.82400
H783        H  0.83699320  0.40190687  0.77309521     0.18200
N784        N  0.83203879  0.41839325  0.82282111    -0.81000
H785        H  0.89644595  0.47017112  0.74647515     0.33800
H786        H  0.90119114  0.44356796  0.73534260     0.38300
H787        H  0.82292573  0.40419186  0.81577458     0.33800
H788        H  0.84225184  0.41248206  0.83884901     0.30500
H789        H  0.89247331  0.43857378  0.87708603     0.33800
H790        H  0.87882714  0.42352555  0.85319726     0.30500
H791        H  0.82400974  0.52347925  0.85583403     0.38400
H792        H  0.80995124  0.50967330  0.83131082     0.33800
C793        C  0.95360495  0.33583604  0.10657155    -0.19900
C794        C  0.95900983  0.32699958  0.08065291     0.36300
C795        C  0.96043898  0.30310227  0.07681714    -0.25900
C796        C  0.95751461  0.28772394  0.09835618     0.02700
C797        C  0.95378853  0.29634776  0.12443415     0.27600
C798        C  0.95230021  0.32012387  0.12833210    -0.25000
N799        N  0.96261948  0.34223242  0.05812451    -0.82400
H800        H  0.96385134  0.29638019  0.05689866     0.13400
C801        C  0.95777123  0.26255185  0.09357767     0.02700
N802        N  0.95112017  0.28082988  0.14690161    -0.81000
H803        H  0.95031023  0.32593881  0.14874491     0.18200
C804        C  0.97377926  0.24880365  0.10736876    -0.25800
C805        C  0.97235465  0.22472515  0.10701656     0.36200
C806        C  0.95499780  0.21381497  0.09135726    -0.19800
C807        C  0.93951618  0.22797987  0.07668681    -0.25100
C808        C  0.94068361  0.25206719  0.07774053     0.27600
H809        H  0.98684605  0.25700083  0.11960638     0.13300
N810        N  0.98821697  0.21144740  0.12316301    -0.82400
H811        H  0.92537133  0.22068121  0.06563103     0.18200
N812        N  0.92391572  0.26593734  0.06371060    -0.81000
H813        H  0.00046307  0.22201055  0.13226449     0.33800
H814        H  0.97907927  0.20387358  0.13890728     0.38300
H815        H  0.91251433  0.25567987  0.05278797     0.33800
H816        H  0.91420367  0.27444589  0.07822153     0.30500
H817        H  0.94865110  0.28982610  0.16483828     0.33800
H818        H  0.93617678  0.27136738  0.14352522     0.30500
H819        H  0.97780809  0.35117731  0.06176792     0.38400
H820        H  0.96521681  0.33298006  0.04039686     0.33800
C821        C  0.92375161  0.40165520  0.16485682    -0.19900
C822        C  0.90445196  0.39077780  0.17639614     0.36300
C823        C  0.89656575  0.39783152  0.20173630    -0.25900
C824        C  0.90713295  0.41584877  0.21554066     0.02700
C825        C  0.92517436  0.42793115  0.20326445     0.27600
C826        C  0.93332844  0.42071396  0.17795224    -0.25000
N827        N  0.89302616  0.37247089  0.16242687    -0.82400
H828        H  0.88236599  0.38893518  0.21108536     0.13400
C829        C  0.89969119  0.42078610  0.24344968     0.02700
N830        N  0.93545011  0.44705908  0.21687622    -0.81000
H831        H  0.94776707  0.42938391  0.16906095     0.18200
C832        C  0.91218726  0.41138677  0.26512798    -0.25800
C833        C  0.90373791  0.41214281  0.29166000     0.36200
C834        C  0.88249699  0.42320358  0.29667751    -0.19800
C835        C  0.87065653  0.43357892  0.27488555    -0.25100
C836        C  0.87895912  0.43231543  0.24834768     0.27600
H837        H  0.92801585  0.40230770  0.26107209     0.13300
N838        N  0.91624667  0.40085253  0.31310476    -0.82400
H839        H  0.85438888  0.44201410  0.27835970     0.18200
N840        N  0.86607905  0.44201910  0.22617542    -0.81000
H841        H  0.93206405  0.39489312  0.30622167     0.33800
H842        H  0.90696210  0.38625441  0.31860906     0.38300
H843        H  0.85101166  0.44967056  0.23307088     0.33800
H844        H  0.87595694  0.45512998  0.21773783     0.30500
H845        H  0.94859516  0.45404169  0.20522553     0.33800
H846        H  0.92290093  0.45981177  0.21854184     0.30500
H847        H  0.88611869  0.37927904  0.14454594     0.38400
H848        H  0.87925065  0.36628605  0.17369047     0.33800
C849        C  0.91662500  0.40894138  0.07104324    -0.19900
C850        C  0.90015928  0.42553624  0.07829542     0.36300
C851        C  0.88809627  0.43759303  0.05786359    -0.25900
C852        C  0.89227623  0.43343874  0.03044518     0.02700
C853        C  0.90896726  0.41717605  0.02319404     0.27600
C854        C  0.92091018  0.40504192  0.04354712    -0.25000
N855        N  0.89549196  0.42983256  0.10626602    -0.82400
H856        H  0.87533416  0.45025429  0.06328001     0.13400
C857        C  0.87934123  0.44658647  0.00951451     0.02700
N858        N  0.91396128  0.41334019  0.99520193    -0.81000
H859        H  0.93383397  0.39260731  0.03793681     0.18200
C860        C  0.88838873  0.46720625  0.99969039    -0.25800
C861        C  0.87616182  0.48074401  0.98085631     0.36200
C862        C  0.85438854  0.47360926  0.97151171    -0.19800
C863        C  0.84570946  0.45249650  0.98085927    -0.25100
C864        C  0.85798084  0.43890925  0.99969821     0.27600
H865        H  0.90487892  0.47307095  0.00711687     0.13300
N866        N  0.88562257  0.50214531  0.97223278    -0.82400
H867        H  0.82920038  0.44661977  0.97353445     0.18200
N868        N  0.84865513  0.41759859  0.00932027    -0.81000
H869        H  0.90137978  0.49883639  0.96311253     0.33800
H870        H  0.88874521  0.51206851  0.98937383     0.38300
H871        H  0.83264687  0.41455282  0.00040775     0.33800
H872        H  0.85947672  0.40439970  0.00299421     0.30500
H873        H  0.92700019  0.40113424  0.99328736     0.33800
H874        H  0.89933757  0.40635791  0.98614936     0.30500
H875        H  0.88856816  0.41485784  0.11450587     0.38400
H876        H  0.88299956  0.44260277  0.10814098     0.33800
C877        C  0.98645718  0.41604955  0.10624039    -0.19900
C878        C  0.00104330  0.41466964  0.08360345     0.36300
C879        C  0.01818331  0.43129457  0.07998380    -0.25900
C880        C  0.02074245  0.44932767  0.09826845     0.02700
C881        C  0.00615379  0.45086028  0.12068075     0.27600
C882        C  0.98905693  0.43425144  0.12434870    -0.25000
N883        N  0.99811666  0.39671371  0.06412975    -0.82400
H884        H  0.02952640  0.43030169  0.06280603     0.13400
C885        C  0.03927080  0.46619220  0.09436375     0.02700
N886        N  0.00880852  0.46929884  0.13958066    -0.81000
H887        H  0.97795529  0.43535233  0.14162052     0.18200
C888        C  0.03431843  0.48730381  0.08196016    -0.25800
C889        C  0.05122511  0.50427886  0.07975430     0.36200
C890        C  0.07336915  0.50021009  0.09052699    -0.19800
C891        C  0.07842092  0.47869614  0.10210182    -0.25100
C892        C  0.06155687  0.46163954  0.10413052     0.27600
H893        H  0.01720903  0.49066599  0.07415827     0.13300
N894        N  0.04593035  0.52539831  0.06611353    -0.82400
H895        H  0.09534919  0.47545658  0.11047148     0.18200
N896        N  0.06683292  0.43981209  0.11637900    -0.81000
H897        H  0.03212294  0.53308589  0.07593597     0.33800
H898        H  0.04071311  0.52160315  0.04639902     0.38300
H899        H  0.08407704  0.43909935  0.12225680     0.33800
H900        H  0.05723701  0.43839157  0.13404716     0.30500
H901        H  0.99657478  0.46808112  0.15482728     0.33800
H902        H  0.02482807  0.46739647  0.14898619     0.30500
H903        H  0.98203069  0.39896499  0.05500564     0.38400
H904        H  0.01024085  0.39816127  0.04877940     0.33800
C905        C  0.98055720  0.71261252  0.92228978    -0.19900
C906        C  0.97417084  0.72360092  0.94669323     0.36300
C907        C  0.97412681  0.74782379  0.94820436    -0.25900
C908        C  0.97965787  0.76144321  0.92574597     0.02700
C909        C  0.98404665  0.75079191  0.90096036     0.27600
C910        C  0.98411231  0.72675166  0.89937073    -0.25000
N911        N  0.96814663  0.71020236  0.97004949    -0.82400
H912        H  0.97003461  0.75614083  0.96706802     0.13400
C913        C  0.98080472  0.78690129  0.92787049     0.02700
N914        N  0.98843898  0.76456149  0.87735089    -0.81000
H915        H  0.98651614  0.71951781  0.87968280     0.18200
C916        C  0.00193020  0.79782760  0.92435289    -0.25800
C917        C  0.00352646  0.82183309  0.92306144     0.36200
C918        C  0.98360971  0.83568516  0.92533206    -0.19800
C919        C  0.96249507  0.82448275  0.92989319    -0.25100
C920        C  0.96091521  0.80033614  0.93090466     0.27600
H921        H  0.01729733  0.78757979  0.92191238     0.13300
N922        N  0.02550792  0.83211248  0.91880752    -0.82400
H923        H  0.94688282  0.83410573  0.93214395     0.18200
N924        N  0.93906575  0.78937101  0.93427328    -0.81000
H925        H  0.03212107  0.82580955  0.90073723     0.33800
H926        H  0.03643362  0.82694143  0.93455274     0.38300
H927        H  0.92604618  0.80157747  0.93632939     0.33800
H928        H  0.93543002  0.78036289  0.91656330     0.30500
H929        H  0.99166787  0.75422915  0.86063040     0.33800
H930        H  0.97351161  0.77385455  0.87287795     0.30500
H931        H  0.95278699  0.70177350  0.96568364     0.38400
H932        H  0.96481268  0.72082283  0.98649243     0.33800
C933        C  0.94355378  0.63289714  0.92302176    -0.19900
C934        C  0.92481781  0.63601143  0.94063781     0.36300
C935        C  0.90767377  0.61906784  0.94223378    -0.25900
C936        C  0.90907371  0.59880163  0.92720204     0.02700
C937        C  0.92784067  0.59556428  0.90983523     0.27600
C938        C  0.94462966  0.61273469  0.90764599    -0.25000
N939        N  0.92351968  0.65597065  0.95742611    -0.82400
H940        H  0.89322820  0.62153665  0.95552723     0.13400
C941        C  0.89073353  0.58113766  0.92960445     0.02700
N942        N  0.92993801  0.57467532  0.89477320    -0.81000
H943        H  0.95874283  0.61023167  0.89389351     0.18200
C944        C  0.87819267  0.57490889  0.90648677    -0.25800
C945        C  0.86123745  0.55782584  0.90763648     0.36200
C946        C  0.85692437  0.54649707  0.93226819    -0.19800
C947        C  0.86879437  0.55323848  0.95562019    -0.25100
C948        C  0.88579018  0.57037242  0.95453909     0.27600
H949        H  0.88166882  0.58345532  0.88746311     0.13300
N950        N  0.84844809  0.55181982  0.88384564    -0.82400
H951        H  0.86501031  0.54486097  0.97464083     0.18200
N952        N  0.89833409  0.57656850  0.97849979    -0.81000
H953        H  0.85386249  0.56150126  0.86725224     0.33800
H954        H  0.83133082  0.55631502  0.88715359     0.38300
H955        H  0.89261433  0.56708761  0.99511726     0.33800
H956        H  0.91547711  0.57198603  0.97562181     0.30500
H957        H  0.94468518  0.57496312  0.88291454     0.33800
H958        H  0.93209342  0.56123921  0.90866811     0.30500
H959        H  0.93734433  0.65529042  0.97098259     0.38400
H960        H  0.90863359  0.65567468  0.96904204     0.33800
C961        C  0.01339001  0.63926861  0.96447466    -0.19900
C962        C  0.00412084  0.61925725  0.97627745     0.36300
C963        C  0.01692079  0.60678520  0.99563169    -0.25900
C964        C  0.03883295  0.61401406  0.00365274     0.02700
C965        C  0.04794170  0.63431487  0.99251037     0.27600
C966        C  0.03513232  0.64676086  0.97307244    -0.25000
N967        N  0.98150410  0.61180226  0.96915456    -0.82400
H968        H  0.00981109  0.59125028  0.00425128     0.13400
C969        C  0.05272940  0.59946290  0.02238615     0.02700
N970        N  0.07036134  0.64192987  0.00063872    -0.81000
H971        H  0.04234862  0.66212757  0.96418619     0.18200
C972        C  0.06855318  0.58407603  0.01148694    -0.25800
C973        C  0.08230526  0.57011899  0.02823930     0.36200
C974        C  0.08072514  0.57184705  0.05664399    -0.19800
C975        C  0.06445365  0.58692472  0.06755287    -0.25100
C976        C  0.05044525  0.60079285  0.05067682     0.27600
H977        H  0.07007043  0.58271810  0.98975169     0.13300
N978        N  0.09726089  0.55362758  0.01622422    -0.82400
H979        H  0.06290067  0.58812508  0.08928491     0.18200
N980        N  0.03389535  0.61614850  0.06209011    -0.81000
H981        H  0.08732645  0.54268219  0.00430113     0.33800
H982        H  0.10856353  0.56238750  0.00355355     0.38300
H983        H  0.03418765  0.61493481  0.08316740     0.33800
H984        H  0.03882815  0.63287954  0.05719573     0.30500
H985        H  0.07470661  0.65700781  0.99037838     0.33800
H986        H  0.06965963  0.64604960  0.02113680     0.30500
H987        H  0.98264999  0.59510770  0.96170693     0.38400
H988        H  0.97165988  0.61134343  0.98669452     0.33800
C989        C  0.08155854  0.70528734  0.66609972    -0.19900
C990        C  0.06051045  0.71719068  0.66850826     0.36300
C991        C  0.06040101  0.74129420  0.66788418    -0.25900
C992        C  0.08079069  0.75371723  0.66492061     0.02700
C993        C  0.10180499  0.74188203  0.66283790     0.27600
C994        C  0.10197860  0.71784115  0.66370155    -0.25000
N995        N  0.03937273  0.70488760  0.67174647    -0.82400
H996        H  0.04434775  0.75049430  0.66991999     0.13400
C997        C  0.07998244  0.77913998  0.66427667     0.02700
N998        N  0.12283929  0.75433572  0.65937224    -0.81000
H999        H  0.11816632  0.70886534  0.66180011     0.18200
C1000       C  0.09293207  0.79140989  0.68320714    -0.25800
C1001       C  0.09322757  0.81546609  0.68299215     0.36200
C1002       C  0.08017167  0.82761366  0.66328909    -0.19800
C1003       C  0.06680181  0.81523094  0.64469264    -0.25100
C1004       C  0.06669658  0.79112407  0.64486697     0.27600
H1005       H  0.10282911  0.78209716  0.69833347     0.13300
N1006       N  0.10676558  0.82746266  0.70274142    -0.82400
H1007       H  0.05677774  0.82435870  0.62954165     0.18200
N1008       N  0.05351920  0.77875788  0.62510983    -0.81000
H1009       H  0.11598005  0.81593804  0.71495771     0.33800
H1010       H  0.09542566  0.83601165  0.71547177     0.38300
H1011       H  0.04464896  0.79010017  0.61232528     0.33800
H1012       H  0.06503462  0.76976450  0.61302437     0.30500
H1013       H  0.13678879  0.74308530  0.65830217     0.33800
H1014       H  0.12185259  0.76287167  0.64076335     0.30500
H1015       H  0.04012285  0.69650013  0.69046355     0.38400
H1016       H  0.02548824  0.71623667  0.67257754     0.33800
C1017       C  0.05575542  0.61760831  0.74227592    -0.19900
C1018       C  0.03328454  0.60923719  0.74659247     0.36300
C1019       C  0.02365896  0.61056407  0.77259607    -0.25900
C1020       C  0.03576526  0.62041176  0.79421730     0.02700
C1021       C  0.05846379  0.62778279  0.79026189     0.27600
C1022       C  0.06829371  0.62597294  0.76455593    -0.25000
N1023       N  0.02003929  0.59997811  0.72464329    -0.82400
H1024       H  0.00616615  0.60500061  0.77574143     0.13400
C1025       C  0.02358912  0.62620004  0.81958601     0.02700
N1026       N  0.07109041  0.63810267  0.81208009    -0.81000
H1027       H  0.08555345  0.63229563  0.76169399     0.18200
C1028       C  0.03073923  0.61670874  0.84446913    -0.25800
C1029       C  0.02164880  0.62466747  0.86900258     0.36200
C1030       C  0.00522716  0.64243097  0.86868967    -0.19800
C1031       C  0.99727542  0.65096067  0.84366778    -0.25100
C1032       C  0.00640740  0.64324543  0.81921674     0.27600
H1033       H  0.04401049  0.60367042  0.84488051     0.13300
N1034       N  0.02995188  0.61546159  0.89411822    -0.82400
H1035       H  0.98429547  0.66429100  0.84322673     0.18200
N1036       N  0.99891733  0.65329141  0.79402323    -0.81000
H1037       H  0.04768080  0.61793435  0.89501755     0.33800
H1038       H  0.02685072  0.59780634  0.89421575     0.38300
H1039       H  0.98608659  0.66550045  0.79722730     0.33800
H1040       H  0.01282601  0.66210585  0.78577985     0.30500
H1041       H  0.08761117  0.64252438  0.80592840     0.33800
H1042       H  0.06283248  0.65343991  0.81700148     0.30500
H1043       H  0.01549652  0.61363150  0.71188619     0.38400
H1044       H  0.00462544  0.59316994  0.73170738     0.33800
C1045       C  0.07648611  0.70143724  0.35135012    -0.19900
C1046       C  0.08577349  0.71520666  0.33051142     0.36300
C1047       C  0.08443754  0.73920183  0.33234505    -0.25900
C1048       C  0.07337656  0.74975419  0.35398554     0.02700
C1049       C  0.06250565  0.73613691  0.37365496     0.27600
C1050       C  0.06420818  0.71208005  0.37218759    -0.25000
N1051       N  0.09669530  0.70485333  0.30768442    -0.82400
H1052       H  0.09226522  0.74981921  0.31693786     0.13400
C1053       C  0.07433149  0.77508695  0.35613407     0.02700
N1054       N  0.05034271  0.74679682  0.39537407    -0.81000
H1055       H  0.05672516  0.70167356  0.38801331     0.18200
C1056       C  0.05456141  0.78825255  0.35135097    -0.25800
C1057       C  0.05548760  0.81241305  0.35080486     0.36200
C1058       C  0.07665750  0.82358450  0.35573243    -0.19800
C1059       C  0.09624567  0.81015334  0.36130305    -0.25100
C1060       C  0.09530486  0.78610949  0.36150091     0.27600
H1061       H  0.03851619  0.77960072  0.34715688     0.13300
N1062       N  0.03510823  0.82545738  0.34482536    -0.82400
H1063       H  0.11252272  0.81841330  0.36532687     0.18200
N1064       N  0.11562623  0.77276014  0.36687436    -0.81000
H1065       H  0.02095055  0.81462608  0.34275551     0.33800
H1066       H  0.03737927  0.83328383  0.32598070     0.38300
H1067       H  0.12973603  0.78344061  0.37018729     0.33800
H1068       H  0.11303158  0.76367183  0.38485612     0.30500
H1069       H  0.04318551  0.73436919  0.40806134     0.33800
H1070       H  0.06227804  0.75580537  0.40701649     0.30500
H1071       H  0.08414183  0.69572032  0.29708719     0.38400
H1072       H  0.10280499  0.71740165  0.29441365     0.33800
C1073       C  0.07611772  0.60527376  0.44130579    -0.19900
C1074       C  0.05356067  0.60061784  0.45014707     0.36300
C1075       C  0.04927903  0.59828786  0.47806445    -0.25900
C1076       C  0.06710288  0.60014550  0.49715145     0.02700
C1077       C  0.08971929  0.60360443  0.48823879     0.27600
C1078       C  0.09398906  0.60586697  0.46053662    -0.25000
N1079       N  0.03503754  0.59879997  0.43097193    -0.82400
H1080       H  0.03194316  0.59552254  0.48504376     0.13400
C1081       C  0.06215032  0.60068088  0.52654050     0.02700
N1082       N  0.10818974  0.60575757  0.50749949    -0.81000
H1083       H  0.11137794  0.60918337  0.45410012     0.18200
C1084       C  0.07211770  0.58408463  0.54362815    -0.25800
C1085       C  0.07331367  0.58731343  0.57176443     0.36200
C1086       C  0.06398721  0.60750258  0.58304824    -0.19800
C1087       C  0.05209163  0.62297319  0.56604318    -0.25100
C1088       C  0.05113605  0.61981358  0.53791869     0.27600
H1089       H  0.08048939  0.56937353  0.53474068     0.13300
N1090       N  0.08527871  0.57088854  0.58849498    -0.82400
H1091       H  0.04457809  0.63829462  0.57455501     0.18200
N1092       N  0.04010493  0.63658928  0.52076458    -0.81000
H1093       H  0.09024563  0.55667803  0.57716003     0.33800
H1094       H  0.10043280  0.57859810  0.59521537     0.38300
H1095       H  0.03266395  0.64953205  0.53231490     0.33800
H1096       H  0.05276328  0.64443668  0.50911443     0.30500
H1097       H  0.12381788  0.60809775  0.49768838     0.33800
H1098       H  0.10526936  0.62062311  0.51867379     0.30500
H1099       H  0.03814375  0.58428458  0.41924490     0.38400
H1100       H  0.01954439  0.59587559  0.44086408     0.33800
C1101       C  0.09419869  0.55596193  0.15031184    -0.19900
C1102       C  0.07674909  0.54442289  0.16461970     0.36300
C1103       C  0.07175631  0.55102154  0.19130551    -0.25900
C1104       C  0.08417589  0.56853990  0.20397352     0.02700
C1105       C  0.10152696  0.58006372  0.18971060     0.27600
C1106       C  0.10623145  0.57377890  0.16301149    -0.25000
N1107       N  0.06488501  0.52547180  0.15252401    -0.82400
H1108       H  0.05862004  0.54208085  0.20254495     0.13400
C1109       C  0.07989014  0.57422491  0.23262391     0.02700
N1110       N  0.11481439  0.59759972  0.20276713    -0.81000
H1111       H  0.11970690  0.58255876  0.15215634     0.18200
C1112       C  0.09287956  0.56319384  0.25278485    -0.25800
C1113       C  0.09235518  0.57068835  0.27973356     0.36200
C1114       C  0.07886546  0.59006128  0.28648074    -0.19800
C1115       C  0.06461035  0.59995738  0.26646996    -0.25100
C1116       C  0.06496987  0.59219439  0.23962111     0.27600
H1117       H  0.10413859  0.54921493  0.24722553     0.13300
N1118       N  0.10631422  0.55933689  0.29984483    -0.82400
H1119       H  0.05390245  0.61450199  0.27147269     0.18200
N1120       N  0.05065487  0.60281275  0.21930377    -0.81000
H1121       H  0.11582145  0.54606815  0.29126200     0.33800
H1122       H  0.09523555  0.55160216  0.31365881     0.38300
H1123       H  0.04044156  0.61558144  0.22781421     0.33800
H1124       H  0.06129712  0.61101771  0.20540862     0.30500
H1125       H  0.12732899  0.60397798  0.18973892     0.33800
H1126       H  0.10383925  0.61129317  0.20692747     0.30500
H1127       H  0.07684988  0.51232257  0.14982004     0.38400
H1128       H  0.05247584  0.51900125  0.16562826     0.33800
C1129       C  0.65412195  0.13638964  0.64507257    -0.19900
C1130       C  0.66650466  0.11566453  0.64889147     0.36300
C1131       C  0.69043399  0.11642777  0.65249871    -0.25900
C1132       C  0.70228551  0.13731190  0.65209136     0.02700
C1133       C  0.69008076  0.15791175  0.64786145     0.27600
C1134       C  0.66619372  0.15723452  0.64434645    -0.25000
N1135       N  0.65488401  0.09395379  0.64933320    -0.82400
H1136       H  0.69998407  0.10062006  0.65538414     0.13400
C1137       C  0.72756299  0.13734569  0.65565529     0.02700
N1138       N  0.70199031  0.17947042  0.64752429    -0.81000
H1139       H  0.65694007  0.17320184  0.64142538     0.18200
C1140       C  0.74125949  0.14620333  0.63496069    -0.25800
C1141       C  0.76528894  0.14609703  0.63713819     0.36200
C1142       C  0.77587344  0.13715413  0.66079475    -0.19800
C1143       C  0.76204377  0.12841755  0.68158688    -0.25100
C1144       C  0.73801001  0.12844774  0.67927213     0.27600
H1145       H  0.73311596  0.15278462  0.61673487     0.13300
N1146       N  0.77886777  0.15451851  0.61511153    -0.82400
H1147       H  0.77000335  0.12151843  0.69975729     0.18200
N1148       N  0.72415380  0.11954440  0.70079509    -0.81000
H1149       H  0.76838145  0.16102941  0.59962800     0.33800
H1150       H  0.78760698  0.14051369  0.60699800     0.38300
H1151       H  0.73447797  0.11352780  0.71670437     0.33800
H1152       H  0.71451659  0.13315285  0.70840567     0.30500
H1153       H  0.69054731  0.19302290  0.64403532     0.33800
H1154       H  0.70903302  0.18194422  0.66676651     0.30500
H1155       H  0.64856528  0.09102073  0.62984220     0.38400
H1156       H  0.66640864  0.08061518  0.65357265     0.33800
C1157       C  0.65990607  0.11842117  0.33717817    -0.19900
C1158       C  0.66975258  0.10047770  0.35283477     0.36300
C1159       C  0.69380602  0.09833795  0.35436478    -0.25900
C1160       C  0.70814965  0.11381151  0.34081059     0.02700
C1161       C  0.69832994  0.13113981  0.32439656     0.27600
C1162       C  0.67438464  0.13317750  0.32267105    -0.25000
N1163       N  0.65546611  0.08499422  0.36783314    -0.82400
H1164       H  0.70145918  0.08498758  0.36684441     0.13400
C1165       C  0.73336646  0.11294696  0.34533492     0.02700
N1166       N  0.71274142  0.14706654  0.31019342    -0.81000
H1167       H  0.66699691  0.14683327  0.31043640     0.18200
C1168       C  0.74794329  0.10981465  0.32328611    -0.25800
C1169       C  0.77184471  0.11217467  0.32606812     0.36200
C1170       C  0.78137022  0.11798589  0.35150487    -0.19800
C1171       C  0.76681247  0.11959191  0.37390831    -0.25100
C1172       C  0.74290990  0.11733733  0.37104844     0.27600
H1173       H  0.74053266  0.10611996  0.30365386     0.13300
N1174       N  0.78635711  0.10907445  0.30304657    -0.82400
H1175       H  0.77396079  0.12380214  0.39351494     0.18200
N1176       N  0.72822504  0.12045104  0.39392677    -0.81000
H1177       H  0.77659658  0.10528079  0.28584714     0.33800
H1178       H  0.79669348  0.09472631  0.30691929     0.38300
H1179       H  0.73792540  0.12346666  0.41138909     0.33800
H1180       H  0.71841952  0.13522596  0.39040480     0.30500
H1181       H  0.70284826  0.15866073  0.29883977     0.33800
H1182       H  0.72159607  0.15670749  0.32460667     0.30500
H1183       H  0.64753857  0.09444007  0.38302429     0.38400
H1184       H  0.66542124  0.07247688  0.37763101     0.33800
C1185       C  0.57369526  0.11720904  0.42301375    -0.19900
C1186       C  0.58976554  0.12375584  0.44305425     0.36300
C1187       C  0.58499697  0.11941238  0.47029197    -0.25900
C1188       C  0.56460072  0.10868786  0.47800320     0.02700
C1189       C  0.54875261  0.10166110  0.45812880     0.27600
C1190       C  0.55352896  0.10586507  0.43069779    -0.25000
N1191       N  0.61087444  0.13478443  0.43571183    -0.82400
H1192       H  0.59707693  0.12480164  0.48573798     0.13400
C1193       C  0.55993998  0.10646824  0.50722833     0.02700
N1194       N  0.52785407  0.09055603  0.46593634    -0.81000
H1195       H  0.54122473  0.10083483  0.41534616     0.18200
C1196       C  0.54375402  0.12106462  0.51889570    -0.25800
C1197       C  0.54305613  0.12406042  0.54705602     0.36200
C1198       C  0.55905921  0.11220894  0.56375560    -0.19800
C1199       C  0.57354516  0.09577457  0.55202403    -0.25100
C1200       C  0.57420622  0.09288361  0.52390892     0.27600
H1201       H  0.53271702  0.13133069  0.50586644     0.13300
N1202       N  0.52722237  0.14019166  0.55841918    -0.82400
H1203       H  0.58552556  0.08622926  0.56462982     0.18200
N1204       N  0.59022042  0.07719689  0.51203930    -0.81000
H1205       H  0.51733517  0.14804789  0.54324072     0.33800
H1206       H  0.51583533  0.13090696  0.57043538     0.38300
H1207       H  0.59973477  0.06867283  0.52703767     0.33800
H1208       H  0.58072480  0.06467810  0.50191703     0.30500
H1209       H  0.51795991  0.08659535  0.44889455     0.33800
H1210       H  0.53227969  0.07495665  0.47514056     0.30500
H1211       H  0.62050222  0.12301117  0.42468535     0.38400
H1212       H  0.62059612  0.13872780  0.45290110     0.33800
C1213       C  0.55299989  0.12066838  0.26292007    -0.19900
C1214       C  0.56598216  0.11542254  0.23970467     0.36300
C1215       C  0.55620181  0.11863533  0.21392825    -0.25900
C1216       C  0.53373574  0.12677318  0.21070496     0.02700
C1217       C  0.52019629  0.13056016  0.23371955     0.27600
C1218       C  0.52990639  0.12727171  0.25961747    -0.25000
N1219       N  0.58930317  0.10760280  0.24225579    -0.82400
H1220       H  0.56639791  0.11548145  0.19613103     0.13400
C1221       C  0.52551665  0.13313514  0.18317072     0.02700
N1222       N  0.49701517  0.13868241  0.23070910    -0.81000
H1223       H  0.51978323  0.13125434  0.27722944     0.18200
C1224       C  0.50779956  0.12071267  0.17082165    -0.25800
C1225       C  0.49960931  0.12668095  0.14481304     0.36200
C1226       C  0.50948332  0.14545203  0.13087698    -0.19800
C1227       C  0.52758870  0.15746025  0.14319972    -0.25100
C1228       C  0.53557773  0.15162012  0.16918279     0.27600
H1229       H  0.50020133  0.10647286  0.18166466     0.13300
N1230       N  0.48087695  0.11419812  0.13302826    -0.82400
H1231       H  0.53539959  0.17170118  0.13257793     0.18200
N1232       N  0.55373070  0.16455720  0.18161521    -0.81000
H1233       H  0.47596661  0.10064975  0.14564104     0.33800
H1234       H  0.46685930  0.12535100  0.13178048     0.38300
H1235       H  0.55939464  0.17751924  0.16861579     0.33800
H1236       H  0.54693109  0.17272077  0.19850742     0.30500
H1237       H  0.48937171  0.14058837  0.24959671     0.33800
H1238       H  0.49763540  0.15503697  0.22196632     0.30500
H1239       H  0.58898286  0.09154365  0.25175721     0.38400
H1240       H  0.59654387  0.10509921  0.22325475     0.33800
C1241       C  0.77663978  0.03179079  0.93483633    -0.19900
C1242       C  0.76626796  0.01731962  0.91532457     0.36300
C1243       C  0.74233895  0.01640041  0.91270388    -0.25900
C1244       C  0.72817724  0.02963885  0.92909903     0.02700
C1245       C  0.73805661  0.04314652  0.94955907     0.27600
C1246       C  0.76210874  0.04391957  0.95245003    -0.25000
N1247       N  0.78005915  0.00430356  0.89711637    -0.82400
H1248       H  0.73476732  0.00592673  0.89699577     0.13400
C1249       C  0.70326309  0.03083151  0.92284328     0.02700
N1250       N  0.72363297  0.05672670  0.96664454    -0.81000
H1251       H  0.76906637  0.05501998  0.96771126     0.18200
C1252       C  0.68739910  0.02106666  0.94050520    -0.25800
C1253       C  0.66364759  0.02223997  0.93511496     0.36200
C1254       C  0.65542690  0.03330084  0.91115033    -0.19800
C1255       C  0.67178275  0.04324924  0.89375004    -0.25100
C1256       C  0.69541516  0.04208085  0.89932704     0.27600
H1257       H  0.69361876  0.01255980  0.95867060     0.13300
N1258       N  0.64794168  0.01194199  0.95385596    -0.82400
H1259       H  0.66662128  0.05277098  0.87605814     0.18200
N1260       N  0.71158268  0.05261001  0.88132380    -0.81000
H1261       H  0.65681822  0.00317503  0.96919609     0.33800
H1262       H  0.63895918  0.02508450  0.96334713     0.38300
H1263       H  0.70318805  0.06005923  0.86470351     0.33800
H1264       H  0.71956787  0.06596737  0.89175119     0.30500
H1265       H  0.73347493  0.06568722  0.98079226     0.33800
H1266       H  0.71548504  0.06906093  0.95447668     0.30500
H1267       H  0.77582382  0.98699460  0.89937825     0.38400
H1268       H  0.77586119  0.00933569  0.87737042     0.33800
C1269       C  0.58819034  0.05611844  0.84871542    -0.19900
C1270       C  0.59524653  0.04758552  0.82347824     0.36300
C1271       C  0.58801015  0.05871688  0.79967219    -0.25900
C1272       C  0.57346417  0.07782522  0.80055350     0.02700
C1273       C  0.56474450  0.08516006  0.82554944     0.27600
C1274       C  0.57224751  0.07418381  0.84951256    -0.25000
N1275       N  0.60998671  0.02782853  0.82219219    -0.82400
H1276       H  0.59431309  0.05294041  0.78033554     0.13400
C1277       C  0.56975775  0.09111749  0.77531188     0.02700
N1278       N  0.54838980  0.10362724  0.82648138    -0.81000
H1279       H  0.56644065  0.08037118  0.86888167     0.18200
C1280       C  0.55367759  0.08364939  0.75609265    -0.25800
C1281       C  0.55235424  0.09388663  0.73022086     0.36200
C1282       C  0.56756690  0.11188031  0.72355592    -0.19800
C1283       C  0.58301604  0.11977846  0.74338588    -0.25100
C1284       C  0.58448694  0.10941867  0.76897011     0.27600
H1285       H  0.54263861  0.06933921  0.76105022     0.13300
N1286       N  0.53608021  0.08566933  0.71063180    -0.82400
H1287       H  0.59485534  0.13345775  0.73855715     0.18200
N1288       N  0.60193114  0.11639075  0.78790974    -0.81000
H1289       H  0.52662646  0.07203255  0.71857874     0.33800
H1290       H  0.52439015  0.09893503  0.70675076     0.38300
H1291       H  0.61206073  0.12940183  0.77967077     0.33800
H1292       H  0.59382898  0.12346675  0.80463903     0.30500
H1293       H  0.54344794  0.10664710  0.84639184     0.33800
H1294       H  0.55638840  0.11858108  0.81973218     0.30500
H1295       H  0.60098924  0.01390956  0.83022048     0.38400
H1296       H  0.61359528  0.02377354  0.80213201     0.33800
C1297       C  0.51779778  0.13363565  0.03629921    -0.19900
C1298       C  0.53703126  0.12063187  0.04460543     0.36300
C1299       C  0.54918861  0.10783769  0.02535999    -0.25900
C1300       C  0.54230439  0.10774089  0.99813215     0.02700
C1301       C  0.52286861  0.12042931  0.98990508     0.27600
C1302       C  0.51086354  0.13337172  0.00906044    -0.25000
N1303       N  0.54431812  0.12077124  0.07240482    -0.82400
H1304       H  0.56411526  0.09795196  0.03153268     0.13400
C1305       C  0.55555524  0.09421079  0.97837888     0.02700
N1306       N  0.51538420  0.11998745  0.96217534    -0.81000
H1307       H  0.49596596  0.14325940  0.00278320     0.18200
C1308       C  0.54809245  0.07216804  0.97153121    -0.25800
C1309       C  0.56050155  0.05858262  0.95333129     0.36200
C1310       C  0.58056004  0.06747180  0.94140563    -0.19800
C1311       C  0.58783738  0.08968594  0.94813867    -0.25100
C1312       C  0.57550034  0.10316398  0.96647855     0.27600
H1313       H  0.53275453  0.06541734  0.98084281     0.13300
N1314       N  0.55321292  0.03557777  0.94766305    -0.82400
H1315       H  0.60318643  0.09655797  0.93897560     0.18200
N1316       N  0.58319737  0.12582064  0.97325830    -0.81000
H1317       H  0.53805577  0.03177255  0.95785945     0.33800
H1318       H  0.56574891  0.02444897  0.95542318     0.38300
H1319       H  0.59829535  0.12976144  0.96298827     0.33800
H1320       H  0.57076076  0.13745162  0.96636748     0.30500
H1321       H  0.50063577  0.13000215  0.95949522     0.33800
H1322       H  0.52818076  0.12760129  0.95051899     0.30500
H1323       H  0.54939397  0.13747923  0.07706416     0.38400
H1324       H  0.55874105  0.11031298  0.07519660     0.33800
C1325       C  0.48988580  0.91003599  0.91913307    -0.19900
C1326       C  0.48987679  0.93057065  0.93404632     0.36300
C1327       C  0.50771646  0.94644964  0.93047766    -0.25900
C1328       C  0.52558728  0.94213019  0.91245387     0.02700
C1329       C  0.52600204  0.92135412  0.89807255     0.27600
C1330       C  0.50817610  0.90540045  0.90169772    -0.25000
N1331       N  0.47183736  0.93512807  0.95288571    -0.82400
H1332       H  0.50767321  0.96234796  0.94168808     0.13400
C1333       C  0.54362503  0.95973169  0.90891863     0.02700
N1334       N  0.54452267  0.91654291  0.87997700    -0.81000
H1335       H  0.50815009  0.88961782  0.89026900     0.18200
C1336       C  0.56268759  0.95965767  0.92631199    -0.25800
C1337       C  0.57914907  0.97725718  0.92519728     0.36200
C1338       C  0.57671162  0.99504425  0.90574091    -0.19800
C1339       C  0.55772377  0.99475444  0.88805758    -0.25100
C1340       C  0.54106377  0.97741040  0.88961220     0.27600
H1341       H  0.56431158  0.94616938  0.94137469     0.13300
N1342       N  0.59777753  0.97750569  0.94439031    -0.82400
H1343       H  0.55578242  0.00818196  0.87298649     0.18200
N1344       N  0.52118332  0.97804394  0.87224755    -0.81000
H1345       H  0.59706119  0.96320869  0.95720998     0.33800
H1346       H  0.59570454  0.99193084  0.95655781     0.38300
H1347       H  0.52159900  0.99246517  0.85960216     0.33800
H1348       H  0.52183280  0.96373727  0.85968342     0.30500
H1349       H  0.54240391  0.90040845  0.87123686     0.33800
H1350       H  0.54373719  0.92850143  0.86417655     0.30500
H1351       H  0.47284783  0.92266210  0.96813804     0.38400
H1352       H  0.47432776  0.95096963  0.96220584     0.33800
C1353       C  0.27762559  0.01037036  0.08601611    -0.19900
C1354       C  0.26670394  0.02455257  0.10524005     0.36300
C1355       C  0.24265355  0.02625252  0.10590713    -0.25900
C1356       C  0.22873420  0.01385535  0.08799905     0.02700
C1357       C  0.23931547  0.00018602  0.06825892     0.27600
C1358       C  0.26346617  0.99876284  0.06727660    -0.25000
N1359       N  0.28002105  0.03694094  0.12470260    -0.82400
H1360       H  0.23475505  0.03695532  0.12104960     0.13400
C1361       C  0.20323834  0.01387080  0.09150601     0.02700
N1362       N  0.22546262  0.98719497  0.04973126    -0.81000
H1363       H  0.27074768  0.98793750  0.05207801     0.18200
C1364       C  0.18858309  0.02037701  0.07011674    -0.25800
C1365       C  0.16453125  0.01890980  0.07247941     0.36200
C1366       C  0.15453585  0.01034477  0.09652611    -0.19800
C1367       C  0.16946926  0.00550371  0.11849576    -0.25100
C1368       C  0.19346198  0.00674941  0.11609765     0.27600
H1369       H  0.19586280  0.02645546  0.05133105     0.13300
N1370       N  0.15029280  0.02597348  0.05020702    -0.82400
H1371       H  0.16294613  0.00064760  0.13792454     0.18200
N1372       N  0.20800062  0.00026231  0.13851103    -0.81000
H1373       H  0.15478180  0.01625818  0.03337999     0.33800
H1374       H  0.15384689  0.04317230  0.04590041     0.38300
H1375       H  0.19825728  0.99558917  0.15528697     0.33800
H1376       H  0.21716731  0.98564475  0.13289129     0.30500
H1377       H  0.23574352  0.97807890  0.03632029     0.33800
H1378       H  0.21645413  0.97500105  0.06097640     0.30500
H1379       H  0.27495517  0.03171493  0.14399533     0.38400
H1380       H  0.27619642  0.05437816  0.12252600     0.33800
C1381       C  0.35644653  0.04721630  0.08386290    -0.19900
C1382       C  0.36090374  0.06172892  0.10577182     0.36300
C1383       C  0.37860272  0.07795481  0.10405327    -0.25900
C1384       C  0.39113723  0.08091539  0.08008216     0.02700
C1385       C  0.38517618  0.06753951  0.05729677     0.27600
C1386       C  0.36815515  0.05059954  0.05962206    -0.25000
N1387       N  0.34728873  0.06019132  0.12965241    -0.82400
H1388       H  0.38271217  0.08804262  0.12171395     0.13400
C1389       C  0.41048073  0.09776932  0.07913178     0.02700
N1390       N  0.39625839  0.07132229  0.03182983    -0.81000
H1391       H  0.36374889  0.04022049  0.04232534     0.18200
C1392       C  0.43155212  0.09117767  0.06789876    -0.25800
C1393       C  0.44986022  0.10664425  0.06570183     0.36200
C1394       C  0.44787627  0.12887311  0.07649436    -0.19800
C1395       C  0.42700777  0.13536046  0.08827467    -0.25100
C1396       C  0.40817632  0.12032552  0.08913025     0.27600
H1397       H  0.43379179  0.07392757  0.06036189     0.13300
N1398       N  0.47003699  0.09990710  0.05147451    -0.82400
H1399       H  0.42528296  0.15233690  0.09676338     0.18200
N1400       N  0.38662915  0.12808147  0.09965869    -0.81000
H1401       H  0.47682138  0.08528736  0.06093372     0.33800
H1402       H  0.46522415  0.09549322  0.03179367     0.38300
H1403       H  0.38782448  0.14504442  0.10621857     0.33800
H1404       H  0.37470585  0.12800470  0.08377649     0.30500
H1405       H  0.38997813  0.06002799  0.01723493     0.33800
H1406       H  0.39195883  0.08786611  0.02525164     0.30500
H1407       H  0.33898945  0.07594794  0.13209940     0.38400
H1408       H  0.35823469  0.05789191  0.14623304     0.33800
C1409       C  0.41904832  0.90877190  0.95868518    -0.19900
C1410       C  0.40310257  0.92502872  0.94853573     0.36300
C1411       C  0.39060106  0.93862132  0.96671765    -0.25900
C1412       C  0.39351246  0.93599658  0.99472610     0.02700
C1413       C  0.40962510  0.92004935  0.00485154     0.27600
C1414       C  0.42219905  0.90658517  0.98676336    -0.25000
N1415       N  0.39915231  0.92720962  0.91993973    -0.82400
H1416       H  0.37817249  0.95095522  0.95909456     0.13400
C1417       C  0.37939328  0.94975769  0.01344930     0.02700
N1418       N  0.41305977  0.91758492  0.03350987    -0.81000
H1419       H  0.43464062  0.89437373  0.99462072     0.18200
C1420       C  0.36136568  0.93917451  0.02733518    -0.25800
C1421       C  0.34796449  0.95151885  0.04580208     0.36200
C1422       C  0.35270982  0.97490395  0.05035733    -0.19800
C1423       C  0.37117232  0.98523114  0.03700421    -0.25100
C1424       C  0.38442055  0.97296861  0.01836052     0.27600
H1425       H  0.35784994  0.92119952  0.02380497     0.13300
N1426       N  0.32987061  0.94033201  0.06032013    -0.82400
H1427       H  0.37514645  0.00297580  0.04090274     0.18200
N1428       N  0.40294734  0.98394400  0.00438691    -0.81000
H1429       H  0.32865946  0.92311814  0.05472818     0.33800
H1430       H  0.33430841  0.94046082  0.08083110     0.38300
H1431       H  0.40426457  0.00113248  0.01008040     0.33800
H1432       H  0.41818195  0.97593189  0.01056201     0.30500
H1433       H  0.42540007  0.90499863  0.03770779     0.33800
H1434       H  0.41969689  0.93306018  0.04067539     0.30500
H1435       H  0.39216764  0.91175681  0.91319439     0.38400
H1436       H  0.38692930  0.93993813  0.91583981     0.33800
C1437       C  0.27874507  0.91986192  0.66559374    -0.19900
C1438       C  0.26601043  0.91283453  0.68835127     0.36300
C1439       C  0.24200086  0.91447531  0.68769078    -0.25900
C1440       C  0.23040160  0.92326634  0.66499096     0.02700
C1441       C  0.24305577  0.93180347  0.64299330     0.27600
C1442       C  0.26718808  0.93017376  0.64358355    -0.25000
N1443       N  0.27746671  0.90366192  0.71188874    -0.82400
H1444       H  0.23216028  0.90825173  0.70468983     0.13400
C1445       C  0.20506432  0.92120001  0.66378541     0.02700
N1446       N  0.23132918  0.94121190  0.61977941    -0.81000
H1447       H  0.27687026  0.93575561  0.62616952     0.18200
C1448       C  0.19108107  0.94080282  0.66453963    -0.25800
C1449       C  0.16695327  0.93892059  0.66482103     0.36200
C1450       C  0.15675195  0.91692459  0.66414651    -0.19800
C1451       C  0.17097997  0.89744386  0.66318559    -0.25100
C1452       C  0.19490486  0.89935026  0.66277075     0.27600
H1453       H  0.19904565  0.95755010  0.66537160     0.13300
N1454       N  0.15293675  0.95918387  0.66603594    -0.82400
H1455       H  0.16342354  0.88051127  0.66229805     0.18200
N1456       N  0.20901981  0.87914482  0.66117313    -0.81000
H1457       H  0.16313398  0.97390552  0.66589429     0.33800
H1458       H  0.14454503  0.95894649  0.68461137     0.38300
H1459       H  0.19892370  0.86435598  0.66075678     0.33800
H1460       H  0.21768043  0.87980754  0.64278081     0.30500
H1461       H  0.24311260  0.94676212  0.60536403     0.33800
H1462       H  0.22190423  0.92799314  0.61087550     0.30500
H1463       H  0.28747974  0.91678110  0.72009138     0.38400
H1464       H  0.26560895  0.89906042  0.72666733     0.33800
C1465       C  0.38852016  0.91506369  0.73149310    -0.19900
C1466       C  0.40770879  0.90148120  0.73922050     0.36300
C1467       C  0.41480317  0.90085789  0.76640471    -0.25900
C1468       C  0.40359523  0.91379675  0.78601016     0.02700
C1469       C  0.38584425  0.92892016  0.77813221     0.27600
C1470       C  0.37843540  0.92938344  0.75092094    -0.25000
N1471       N  0.41948712  0.88772172  0.71971465    -0.82400
H1472       H  0.42874708  0.88961157  0.77257176     0.13400
C1473       C  0.40975583  0.90960791  0.81477291     0.02700
N1474       N  0.37531008  0.94353114  0.79776241    -0.81000
H1475       H  0.36402321  0.94016759  0.74518790     0.18200
C1476       C  0.42890132  0.92054117  0.82606643    -0.25800
C1477       C  0.43771754  0.91381309  0.85153026     0.36200
C1478       C  0.42690042  0.89595384  0.86610746    -0.19800
C1479       C  0.40719103  0.88570054  0.85508705    -0.25100
C1480       C  0.39861305  0.89222081  0.82953992     0.27600
H1481       H  0.43764313  0.93357215  0.81436451     0.13300
N1482       N  0.45830472  0.92417300  0.86181811    -0.82400
H1483       H  0.39872380  0.87215279  0.86624001     0.18200
N1484       N  0.37933542  0.88043492  0.81788696    -0.81000
H1485       H  0.46390673  0.93718165  0.84884192     0.33800
H1486       H  0.47107928  0.91157308  0.86193856     0.38300
H1487       H  0.37353951  0.86759120  0.83096216     0.33800
H1488       H  0.36590945  0.89222485  0.81578185     0.30500
H1489       H  0.36274567  0.95386047  0.78860769     0.33800
H1490       H  0.36687802  0.93313725  0.81175204     0.30500
H1491       H  0.42720782  0.89892731  0.70597785     0.38400
H1492       H  0.43275921  0.87833049  0.72887811     0.33800
C1493       C  0.28267268  0.90610985  0.34628694    -0.19900
C1494       C  0.27025744  0.89397320  0.32630731     0.36300
C1495       C  0.24618800  0.89378270  0.32714507    -0.25900
C1496       C  0.23434233  0.90544583  0.34739340     0.02700
C1497       C  0.24662036  0.91788843  0.36698726     0.27600
C1498       C  0.27064572  0.91790637  0.36640085    -0.25000
N1499       N  0.28200388  0.88165398  0.30548970    -0.82400
H1500       H  0.23658019  0.88418297  0.31220949     0.13400
C1501       C  0.20904732  0.90410319  0.34827786     0.02700
N1502       N  0.23458196  0.93059984  0.38724931    -0.81000
H1503       H  0.28000476  0.92745670  0.38158446     0.18200
C1504       C  0.19865973  0.89449096  0.37109577    -0.25800
C1505       C  0.17472393  0.89290251  0.37291802     0.36200
C1506       C  0.16088095  0.90134971  0.35143604    -0.19800
C1507       C  0.17140855  0.91079870  0.32848550    -0.25100
C1508       C  0.19536394  0.91232293  0.32672885     0.27600
H1509       H  0.20935592  0.88797099  0.38744063     0.13300
N1510       N  0.16455730  0.88247849  0.39632075    -0.82400
H1511       H  0.16091479  0.91729864  0.31196204     0.18200
N1512       N  0.20586623  0.92239165  0.30332657    -0.81000
H1513       H  0.17716037  0.87773925  0.41044367     0.33800
H1514       H  0.15669977  0.86728906  0.39008279     0.38300
H1515       H  0.19339336  0.92752262  0.28923476     0.33800
H1516       H  0.21431098  0.93727172  0.30952954     0.30500
H1517       H  0.24612719  0.93880007  0.40021053     0.33800
H1518       H  0.22521395  0.94353175  0.37738438     0.30500
H1519       H  0.29082978  0.86805991  0.31475696     0.38400
H1520       H  0.27028333  0.87428881  0.29203203     0.33800
C1521       C  0.37804900  0.92473509  0.43081099    -0.19900
C1522       C  0.39460542  0.91103313  0.44448480     0.36300
C1523       C  0.39490272  0.91040395  0.47286832    -0.25900
C1524       C  0.37925886  0.92328548  0.48782910     0.02700
C1525       C  0.36389119  0.93821410  0.47438324     0.27600
C1526       C  0.36359544  0.93896543  0.44600902    -0.25000
N1527       N  0.41030468  0.89695300  0.42966326    -0.82400
H1528       H  0.40677674  0.89910519  0.48343902     0.13400
C1529       C  0.37733180  0.91896192  0.51722993     0.02700
N1530       N  0.34790091  0.95168296  0.48956716    -0.81000
H1531       H  0.35100059  0.94967977  0.43577657     0.18200
C1532       C  0.38379625  0.93589748  0.53571909    -0.25800
C1533       C  0.38101448  0.93251645  0.56372592     0.36200
C1534       C  0.37087743  0.91198589  0.57325141    -0.19800
C1535       C  0.36507948  0.89485291  0.55450976    -0.25100
C1536       C  0.36821252  0.89811186  0.52669544     0.27600
H1537       H  0.39098511  0.95180270  0.52821747     0.13300
N1538       N  0.38802039  0.95003168  0.58229337    -0.82400
H1539       H  0.35760810  0.87891775  0.56150053     0.18200
N1540       N  0.36174680  0.88050285  0.50791668    -0.81000
H1541       H  0.39425466  0.96433351  0.57187160     0.33800
H1542       H  0.40182479  0.94349229  0.59357797     0.38300
H1543       H  0.35549191  0.86610463  0.51813753     0.33800
H1544       H  0.34819361  0.88686523  0.49608723     0.30500
H1545       H  0.33780504  0.96184086  0.47664668     0.33800
H1546       H  0.33674223  0.94036723  0.49927592     0.30500
H1547       H  0.42121439  0.90794114  0.41908565     0.38400
H1548       H  0.42071912  0.88735405  0.44281748     0.33800
C1549       C  0.37164344  0.94915027  0.27616261    -0.19900
C1550       C  0.35839096  0.96888742  0.26985337     0.36300
C1551       C  0.35616275  0.97599147  0.24277620    -0.25900
C1552       C  0.36726361  0.96418534  0.22208809     0.02700
C1553       C  0.38218726  0.94594097  0.22852420     0.27600
C1554       C  0.38429564  0.93863050  0.25554064    -0.25000
N1555       N  0.34637250  0.98100041  0.29062207    -0.82400
H1556       H  0.34502055  0.99029150  0.23759487     0.13400
C1557       C  0.36122317  0.96989187  0.19377470     0.02700
N1558       N  0.39462865  0.93455130  0.20754212    -0.81000
H1559       H  0.39486360  0.92379954  0.26021663     0.18200
C1560       C  0.37352401  0.98674835  0.17987798    -0.25800
C1561       C  0.36612143  0.99466614  0.15435117     0.36200
C1562       C  0.34596344  0.98558690  0.14251936    -0.19800
C1563       C  0.33461877  0.96759880  0.15594781    -0.25100
C1564       C  0.34196221  0.95975471  0.18145667     0.27600
H1565       H  0.38845910  0.99439916  0.18932486     0.13300
N1566       N  0.37869293  0.01251655  0.14124251    -0.82400
H1567       H  0.31962504  0.95988718  0.14673777     0.18200
N1568       N  0.32944190  0.94213305  0.19540004    -0.81000
H1569       H  0.38016074  0.02619608  0.15465239     0.33800
H1570       H  0.39525156  0.00638644  0.13772056     0.38300
H1571       H  0.31537523  0.93680972  0.18383297     0.33800
H1572       H  0.34023314  0.92788313  0.19750624     0.30500
H1573       H  0.40509755  0.92162999  0.21571564     0.33800
H1574       H  0.38274065  0.92644086  0.19494932     0.30500
H1575       H  0.35870390  0.98828027  0.30336951     0.38400
H1576       H  0.33690002  0.99463435  0.28237778     0.33800
C1577       C  0.56602998  0.33309530  0.64753389    -0.19900
C1578       C  0.58399894  0.31776817  0.65463324     0.36300
C1579       C  0.58044276  0.29409569  0.65263924    -0.25900
C1580       C  0.55954039  0.28526772  0.64342690     0.02700
C1581       C  0.54145265  0.30031856  0.63661008     0.27600
C1582       C  0.54476467  0.32415541  0.63909448    -0.25000
N1583       N  0.60589693  0.32620952  0.66363164    -0.82400
H1584       H  0.59424868  0.28234241  0.65783206     0.13400
C1585       C  0.55789131  0.26019294  0.63952430     0.02700
N1586       N  0.52012231  0.29137368  0.62653075    -0.81000
H1587       H  0.53099697  0.33579000  0.63346165     0.18200
C1588       C  0.54470933  0.24680848  0.65711899    -0.25800
C1589       C  0.54598639  0.22266702  0.65659831     0.36200
C1590       C  0.56089284  0.21188737  0.63809730    -0.19800
C1591       C  0.57301801  0.22550209  0.61957885    -0.25100
C1592       C  0.57167207  0.24947490  0.62012219     0.27600
H1593       H  0.53417986  0.25524618  0.67201584     0.13300
N1594       N  0.53312566  0.20927570  0.67563305    -0.82400
H1595       H  0.58421107  0.21744820  0.60507067     0.18200
N1596       N  0.58489961  0.26311846  0.60167167    -0.81000
H1597       H  0.52404288  0.21993879  0.68866701     0.33800
H1598       H  0.52082643  0.20011793  0.66468953     0.38300
H1599       H  0.59444236  0.25265326  0.58887808     0.33800
H1600       H  0.57337460  0.27227293  0.58939783     0.30500
H1601       H  0.50860466  0.30472152  0.62233298     0.33800
H1602       H  0.52343776  0.28335889  0.60812935     0.30500
H1603       H  0.60341944  0.33424235  0.68218141     0.38400
H1604       H  0.61735283  0.31267700  0.66724043     0.33800
C1605       C  0.65347218  0.41307151  0.64140077    -0.19900
C1606       C  0.66665531  0.39992167  0.62327681     0.36300
C1607       C  0.69065387  0.39969243  0.62592016    -0.25900
C1608       C  0.70169574  0.41248259  0.64601506     0.02700
C1609       C  0.68870153  0.42649344  0.66320648     0.27600
C1610       C  0.66471775  0.42680917  0.66056189    -0.25000
N1611       N  0.65569872  0.38671240  0.60245106    -0.82400
H1612       H  0.70083686  0.38921729  0.61254441     0.13400
C1613       C  0.72676918  0.41003960  0.64985985     0.02700
N1614       N  0.69987845  0.43971078  0.68386680    -0.81000
H1615       H  0.65473514  0.43703799  0.67438615     0.18200
C1616       C  0.74101816  0.42901808  0.64574791    -0.25800
C1617       C  0.76481329  0.42749535  0.65027932     0.36200
C1618       C  0.77452666  0.40636335  0.65888769    -0.19800
C1619       C  0.76009589  0.38732774  0.66263143    -0.25100
C1620       C  0.73633898  0.38898930  0.65837622     0.27600
H1621       H  0.73346274  0.44513026  0.63916590     0.13300
N1622       N  0.77901970  0.44723139  0.64575309    -0.82400
H1623       H  0.76731551  0.37108610  0.66927263     0.18200
N1624       N  0.72182060  0.36946783  0.66294687    -0.81000
H1625       H  0.76936013  0.46075410  0.63755881     0.33800
H1626       H  0.78480172  0.45283464  0.66461710     0.38300
H1627       H  0.73154713  0.35522489  0.66901214     0.33800
H1628       H  0.71102529  0.37338518  0.67903572     0.30500
H1629       H  0.68787646  0.44916646  0.69475666     0.33800
H1630       H  0.70750216  0.42820241  0.69753748     0.30500
H1631       H  0.64767154  0.39825230  0.58914016     0.38400
H1632       H  0.66785916  0.37779514  0.59118214     0.33800
C1633       C  0.57278981  0.33112782  0.34506070    -0.19900
C1634       C  0.58932682  0.31801167  0.35952110     0.36300
C1635       C  0.58938030  0.29408906  0.35703465    -0.25900
C1636       C  0.57309774  0.28300835  0.34087824     0.02700
C1637       C  0.55627268  0.29587096  0.32695568     0.27600
C1638       C  0.55622529  0.31986352  0.32924388    -0.25000
N1639       N  0.60588821  0.32892637  0.37682241    -0.82400
H1640       H  0.60207002  0.28394023  0.36792100     0.13400
C1641       C  0.57404027  0.25782390  0.33882315     0.02700
N1642       N  0.53957527  0.28450594  0.31028080    -0.81000
H1643       H  0.54354902  0.32981525  0.31811512     0.18200
C1644       C  0.55637659  0.24465629  0.34992263    -0.25800
C1645       C  0.55751474  0.22059014  0.34998357     0.36200
C1646       C  0.57669839  0.20963416  0.33833550    -0.19800
C1647       C  0.59407775  0.22302658  0.32674687    -0.25100
C1648       C  0.59292610  0.24699203  0.32683879     0.27600
H1649       H  0.54197299  0.25324444  0.35919547     0.13300
N1650       N  0.53955276  0.20742616  0.36229524    -0.82400
H1651       H  0.60872820  0.21478824  0.31759000     0.18200
N1652       N  0.61088247  0.26043549  0.31492663    -0.81000
H1653       H  0.52648087  0.21818851  0.36913047     0.33800
H1654       H  0.54650814  0.19939600  0.37944524     0.38300
H1655       H  0.62367301  0.24982314  0.30712905     0.33800
H1656       H  0.60376753  0.26941900  0.29853743     0.30500
H1657       H  0.52834679  0.29643287  0.30145030     0.33800
H1658       H  0.54833662  0.27667109  0.29446103     0.30500
H1659       H  0.59693837  0.33638856  0.39274466     0.38400
H1660       H  0.61700903  0.31681615  0.38551030     0.33800
C1661       C  0.64993990  0.41790835  0.34855107    -0.19900
C1662       C  0.66027439  0.43900910  0.35559675     0.36300
C1663       C  0.68431975  0.44025080  0.35816292    -0.25900
C1664       C  0.69816256  0.42095414  0.35376560     0.02700
C1665       C  0.68793123  0.40006111  0.34628175     0.27600
C1666       C  0.66403253  0.39875875  0.34381143    -0.25000
N1667       N  0.64646395  0.45895466  0.36059855    -0.82400
H1668       H  0.69231103  0.45621410  0.36410356     0.13400
C1669       C  0.72326539  0.42222889  0.35851020     0.02700
N1670       N  0.70191135  0.38017223  0.34142999    -0.81000
H1671       H  0.65640116  0.38250683  0.33833174     0.18200
C1672       C  0.73304100  0.40791269  0.37830727    -0.25800
C1673       C  0.75682201  0.40704576  0.38242738     0.36200
C1674       C  0.77127320  0.42074357  0.36620211    -0.19800
C1675       C  0.76140827  0.43594566  0.34722254    -0.25100
C1676       C  0.73747487  0.43674002  0.34311348     0.27600
H1677       H  0.72197859  0.39717129  0.39046883     0.13300
N1678       N  0.76631630  0.39226583  0.40305560    -0.82400
H1679       H  0.77242035  0.44656584  0.33486964     0.18200
N1680       N  0.72760716  0.45172848  0.32296664    -0.81000
H1681       H  0.75337601  0.38314155  0.41285535     0.33800
H1682       H  0.77398749  0.40271196  0.41762425     0.38300
H1683       H  0.74038749  0.46129046  0.31345314     0.33800
H1684       H  0.72009786  0.44147059  0.30810276     0.30500
H1685       H  0.69173680  0.36606157  0.33641035     0.33800
H1686       H  0.71203916  0.38370761  0.32460228     0.30500
H1687       H  0.63892587  0.46388722  0.34222741     0.38400
H1688       H  0.65672018  0.47269205  0.36669483     0.33800
C1689       C  0.55225118  0.42392230  0.42463127    -0.19900
C1690       C  0.55217085  0.44635816  0.43527450     0.36300
C1691       C  0.54926412  0.44947768  0.46324619    -0.25900
C1692       C  0.54687873  0.43065223  0.48085788     0.02700
C1693       C  0.54615640  0.40830571  0.47004984     0.27600
C1694       C  0.54840533  0.40526166  0.44209858    -0.25000
N1695       N  0.55542401  0.46583891  0.41780984    -0.82400
H1696       H  0.54956399  0.46663417  0.47150299     0.13400
C1697       C  0.54756485  0.43404699  0.51067453     0.02700
N1698       N  0.54424457  0.38866237  0.48762282    -0.81000
H1699       H  0.54850660  0.38799706  0.43414998     0.18200
C1700       C  0.53057218  0.42410294  0.52692594    -0.25800
C1701       C  0.53362048  0.42187587  0.55508039     0.36200
C1702       C  0.55379104  0.43058544  0.56727786    -0.19800
C1703       C  0.56934013  0.44294454  0.55129721    -0.25100
C1704       C  0.56668770  0.44445290  0.52315973     0.27600
H1705       H  0.51564227  0.41657642  0.51733723     0.13300
N1706       N  0.51697432  0.40966987  0.57083626    -0.82400
H1707       H  0.58458297  0.45013387  0.56055708     0.18200
N1708       N  0.58409712  0.45528458  0.50714795    -0.81000
H1709       H  0.50277063  0.40534024  0.55891074     0.33800
H1710       H  0.52445124  0.39415443  0.57697381     0.38300
H1711       H  0.59687999  0.46231086  0.51948256     0.33800
H1712       H  0.59199877  0.44256159  0.49570153     0.30500
H1713       H  0.54382910  0.37350120  0.47648629     0.33800
H1714       H  0.55907686  0.38791503  0.49961658     0.30500
H1715       H  0.54136858  0.46664826  0.40459199     0.38400
H1716       H  0.55527644  0.48103921  0.42889014     0.33800
C1717       C  0.65593005  0.50807206  0.91790765    -0.19900
C1718       C  0.66426858  0.51474583  0.94370193     0.36300
C1719       C  0.68803742  0.51531807  0.94917797    -0.25900
C1720       C  0.70400871  0.50929451  0.92943734     0.02700
C1721       C  0.69605584  0.50330689  0.90351375     0.27600
C1722       C  0.67237255  0.50284809  0.89800170    -0.25000
N1723       N  0.64857920  0.52065913  0.96465264    -0.82400
H1724       H  0.69401863  0.52003186  0.96915462     0.13400
C1725       C  0.72905185  0.50847559  0.93584151     0.02700
N1726       N  0.71220591  0.49760806  0.88277198    -0.81000
H1727       H  0.66740552  0.49833915  0.87782616     0.18200
C1728       C  0.74058428  0.48755037  0.93370355    -0.25800
C1729       C  0.76453870  0.48600204  0.93533985     0.36200
C1730       C  0.77794981  0.50632244  0.93934546    -0.19800
C1731       C  0.76586328  0.52702661  0.94384636    -0.25100
C1732       C  0.74171942  0.52832658  0.94179830     0.27600
H1733       H  0.73079397  0.47213939  0.92970689     0.13300
N1734       N  0.77414908  0.46342932  0.93190308    -0.82400
H1735       H  0.77491832  0.54263924  0.94817795     0.18200
N1736       N  0.73008342  0.54990515  0.94487174    -0.81000
H1737       H  0.77039309  0.45815420  0.91222606     0.33800
H1738       H  0.79184384  0.46269917  0.93413239     0.38300
H1739       H  0.74177246  0.56293254  0.94931616     0.33800
H1740       H  0.72255387  0.55416993  0.92626146     0.30500
H1741       H  0.70375515  0.49327147  0.86482261     0.33800
H1742       H  0.72179873  0.51231462  0.87862128     0.30500
H1743       H  0.65220438  0.53736769  0.97084954     0.38400
H1744       H  0.65152337  0.50962368  0.98106198     0.33800
C1745       C  0.58911702  0.48967713  0.85322447    -0.19900
C1746       C  0.57008832  0.47497794  0.85016898     0.36300
C1747       C  0.56396311  0.46686514  0.82444286    -0.25900
C1748       C  0.57648435  0.47302558  0.80147552     0.02700
C1749       C  0.59432399  0.48919925  0.80405008     0.27600
C1750       C  0.60019104  0.49754380  0.82975846    -0.25000
N1751       N  0.55738783  0.46735192  0.87302811    -0.82400
H1752       H  0.54979632  0.45498017  0.82253447     0.13400
C1753       C  0.57183671  0.46136588  0.77529462     0.02700
N1754       N  0.60700286  0.49645554  0.78073335    -0.81000
H1755       H  0.61411391  0.50970946  0.83154992     0.18200
C1756       C  0.56722245  0.47450217  0.75203836    -0.25800
C1757       C  0.56574350  0.46433530  0.72637110     0.36200
C1758       C  0.56831038  0.44025546  0.72395819    -0.19800
C1759       C  0.57149147  0.42702998  0.74757561    -0.25100
C1760       C  0.57350729  0.43728905  0.77309951     0.27600
H1761       H  0.56559162  0.49294127  0.75383456     0.13300
N1762       N  0.56228717  0.47855729  0.70285522    -0.82400
H1763       H  0.57333639  0.40859321  0.74607122     0.18200
N1764       N  0.57802903  0.42338600  0.79666478    -0.81000
H1765       H  0.55931460  0.49557212  0.70838929     0.33800
H1766       H  0.57763821  0.47861918  0.69210256     0.38300
H1767       H  0.57857952  0.40600331  0.79164302     0.33800
H1768       H  0.59435546  0.42762020  0.80389426     0.30500
H1769       H  0.61940847  0.50856505  0.78605549     0.33800
H1770       H  0.61584101  0.48218577  0.77346827     0.30500
H1771       H  0.55757427  0.44941568  0.87310892     0.38400
H1772       H  0.54037859  0.47265224  0.87037597     0.33800
C1773       C  0.48299137  0.33186892  0.07568173    -0.19900
C1774       C  0.47601891  0.32214291  0.05062917     0.36300
C1775       C  0.47549229  0.29804512  0.04764149    -0.25900
C1776       C  0.48128817  0.28337851  0.06919069     0.02700
C1777       C  0.48665881  0.29279591  0.09448278     0.27600
C1778       C  0.48708665  0.31667636  0.09757827    -0.25000
N1779       N  0.46993016  0.33668456  0.02810299    -0.82400
H1780       H  0.47088246  0.29065236  0.02833430     0.13400
C1781       C  0.48226117  0.25809631  0.06555182     0.02700
N1782       N  0.49177028  0.27791293  0.11705522    -0.81000
H1783       H  0.49020974  0.32291006  0.11763531     0.18200
C1784       C  0.50349814  0.24710535  0.06786047    -0.25800
C1785       C  0.50533888  0.22320603  0.06892886     0.36200
C1786       C  0.48518988  0.20925538  0.06764775    -0.19800
C1787       C  0.46393640  0.22066462  0.06373619    -0.25100
C1788       C  0.46230041  0.24481404  0.06293207     0.27600
H1789       H  0.51891512  0.25733977  0.06977879     0.13300
N1790       N  0.52809837  0.21402703  0.07183560    -0.82400
H1791       H  0.44820681  0.21120208  0.06205759     0.18200
N1792       N  0.44034809  0.25591854  0.06028858    -0.81000
H1793       H  0.52978990  0.20465463  0.08963891     0.33800
H1794       H  0.53210324  0.20380726  0.05525774     0.38300
H1795       H  0.42726340  0.24379680  0.05842384     0.33800
H1796       H  0.43730383  0.26478697  0.07819201     0.30500
H1797       H  0.49577489  0.28740574  0.13428930     0.33800
H1798       H  0.47691261  0.26866854  0.12144008     0.30500
H1799       H  0.45475928  0.34523101  0.03292261     0.38400
H1800       H  0.46623869  0.32688573  0.01101046     0.33800
C1801       C  0.50513494  0.40018814  0.13427293    -0.19900
C1802       C  0.49495358  0.39276222  0.15856465     0.36300
C1803       C  0.50274744  0.40161292  0.18321582    -0.25900
C1804       C  0.51989369  0.41843053  0.18422064     0.02700
C1805       C  0.52883673  0.42713360  0.15972187     0.27600
C1806       C  0.52140277  0.41782233  0.13494746    -0.25000
N1807       N  0.47679797  0.37611509  0.15809707    -0.82400
H1808       H  0.49592856  0.39470210  0.20184159     0.13400
C1809       C  0.52996318  0.42437004  0.21108430     0.02700
N1810       N  0.54564343  0.44510492  0.16015023    -0.81000
H1811       H  0.52873011  0.42389838  0.11618506     0.18200
C1812       C  0.55368792  0.42198988  0.21495919    -0.25800
C1813       C  0.56351034  0.42243565  0.24086636     0.36200
C1814       C  0.54939710  0.42482641  0.26375931    -0.19800
C1815       C  0.52587146  0.42908993  0.25977693    -0.25100
C1816       C  0.51604105  0.42908066  0.23365665     0.27600
H1817       H  0.56463303  0.41836881  0.19793193     0.13300
N1818       N  0.58782509  0.41969724  0.24376063    -0.82400
H1819       H  0.51492674  0.43141814  0.27711682     0.18200
N1820       N  0.49187821  0.43308395  0.23001031    -0.81000
H1821       H  0.59575340  0.43286952  0.23290149     0.33800
H1822       H  0.59247821  0.40409018  0.23506820     0.38300
H1823       H  0.48404956  0.43611682  0.24857503     0.33800
H1824       H  0.48996197  0.44808801  0.21853453     0.30500
H1825       H  0.55053976  0.44946067  0.14050827     0.33800
H1826       H  0.53784654  0.45964314  0.16826203     0.30500
H1827       H  0.46286600  0.38350444  0.14780501     0.38400
H1828       H  0.47121182  0.37245091  0.17765924     0.33800
C1829       C  0.58042360  0.47454509  0.94781295    -0.19900
C1830       C  0.57957336  0.48031904  0.97542366     0.36300
C1831       C  0.56638067  0.46689532  0.99317080    -0.25900
C1832       C  0.55372959  0.44814644  0.98368955     0.02700
C1833       C  0.55410548  0.44272437  0.95600815     0.27600
C1834       C  0.56781374  0.45576157  0.93846783    -0.25000
N1835       N  0.59218341  0.49972759  0.98528497    -0.82400
H1836       H  0.56592741  0.47102779  0.01446263     0.13400
C1837       C  0.54058852  0.43399941  0.00309090     0.02700
N1838       N  0.54042529  0.42416385  0.94581979    -0.81000
H1839       H  0.56924884  0.45077849  0.91767055     0.18200
C1840       C  0.51799187  0.44014059  0.00925049    -0.25800
C1841       C  0.50500660  0.42700360  0.02751036     0.36200
C1842       C  0.51490158  0.40734784  0.03977190    -0.19800
C1843       C  0.53756945  0.40131043  0.03359956    -0.25100
C1844       C  0.55057869  0.41454089  0.01551024     0.27600
H1845       H  0.51046557  0.45515528  0.99964310     0.13300
N1846       N  0.48172115  0.43330406  0.03324211    -0.82400
H1847       H  0.54523692  0.38638705  0.04324595     0.18200
N1848       N  0.57404184  0.40861993  0.01014129    -0.81000
H1849       H  0.47712141  0.44828037  0.02277978     0.33800
H1850       H  0.47116436  0.42029123  0.02584326     0.38300
H1851       H  0.57895061  0.39414104  0.02135904     0.33800
H1852       H  0.57517469  0.40407950  0.98981954     0.30500
H1853       H  0.54223893  0.42278444  0.92489703     0.33800
H1854       H  0.54674666  0.40890736  0.95421244     0.30500
H1855       H  0.58524769  0.51440501  0.97609670     0.38400
H1856       H  0.58985958  0.50158277  0.00606706     0.33800
C1857       C  0.27792350  0.52938217  0.09697307    -0.19900
C1858       C  0.26759345  0.52443285  0.07156644     0.36300
C1859       C  0.24353266  0.52280705  0.06931159    -0.25900
C1860       C  0.22938537  0.52521809  0.09187668     0.02700
C1861       C  0.23957145  0.52817139  0.11750271     0.27600
C1862       C  0.26356144  0.52978271  0.11982969    -0.25000
N1863       N  0.28145919  0.52153295  0.04794538    -0.82400
H1864       H  0.23568123  0.51989779  0.04972592     0.13400
C1865       C  0.20395966  0.52605306  0.08829637     0.02700
N1866       N  0.22546770  0.53004600  0.14109055    -0.81000
H1867       H  0.27068602  0.53118227  0.13987917     0.18200
C1868       C  0.18999238  0.51069160  0.10248523    -0.25800
C1869       C  0.16597788  0.51296051  0.10210684     0.36200
C1870       C  0.15525289  0.53063944  0.08663944    -0.19800
C1871       C  0.16951996  0.54536515  0.07153756    -0.25100
C1872       C  0.19356958  0.54337193  0.07239653     0.27600
H1873       H  0.19782743  0.49729715  0.11475127     0.13300
N1874       N  0.15259644  0.49771111  0.11837081    -0.82400
H1875       H  0.16245122  0.55953532  0.06019743     0.18200
N1876       N  0.20756370  0.55959263  0.05806358    -0.81000
H1877       H  0.15597386  0.48091427  0.11223480     0.33800
H1878       H  0.15800384  0.49930453  0.13844569     0.38300
H1879       H  0.19740392  0.57122789  0.04711924     0.33800
H1880       H  0.21661322  0.56914787  0.07239970     0.30500
H1881       H  0.23555526  0.53200018  0.15847705     0.33800
H1882       H  0.21570692  0.54503116  0.13906846     0.30500
H1883       H  0.29106721  0.50653214  0.05057213     0.38400
H1884       H  0.27118208  0.51899366  0.03082594     0.33800
C1885       C  0.35823923  0.49570654  0.09616032    -0.19900
C1886       C  0.35673064  0.47568198  0.11226061     0.36300
C1887       C  0.37351799  0.45845134  0.10979964    -0.25900
C1888       C  0.39173640  0.46103170  0.09176308     0.02700
C1889       C  0.39334659  0.48106439  0.07585876     0.27600
C1890       C  0.37661004  0.49826691  0.07830768    -0.25000
N1891       N  0.33855651  0.47321343  0.13148947    -0.82400
H1892       H  0.37259974  0.44309248  0.12218237     0.13400
C1893       C  0.40956764  0.44302357  0.09025018     0.02700
N1894       N  0.41194567  0.48376941  0.05723893    -0.81000
H1895       H  0.37789422  0.51375121  0.06621918     0.18200
C1896       C  0.40793943  0.42615295  0.07028876    -0.25800
C1897       C  0.42544546  0.40974095  0.06707827     0.36200
C1898       C  0.44478864  0.41022148  0.08441286    -0.19800
C1899       C  0.44602411  0.42686288  0.10477957    -0.25100
C1900       C  0.42868197  0.44335708  0.10776791     0.27600
H1901       H  0.39319922  0.42615116  0.05682227     0.13300
N1902       N  0.42389183  0.39304234  0.04592826    -0.82400
H1903       H  0.46066956  0.42708809  0.11837873     0.18200
N1904       N  0.43041127  0.46050700  0.12842013    -0.81000
H1905       H  0.40857506  0.39504744  0.03504347     0.33800
H1906       H  0.43718184  0.39621215  0.03238750     0.38300
H1907       H  0.44542450  0.45819597  0.13982207     0.33800
H1908       H  0.43184371  0.47647798  0.11887486     0.30500
H1909       H  0.41044223  0.49933033  0.04675606     0.33800
H1910       H  0.42716017  0.48464747  0.06849217     0.30500
H1911       H  0.34060048  0.48604924  0.14595472     0.38400
H1912       H  0.33997411  0.45754147  0.14175919     0.33800
C1913       C  0.44921004  0.70771276  0.92747101    -0.19900
C1914       C  0.45504989  0.71876645  0.95210370     0.36300
C1915       C  0.45707995  0.74293794  0.95289829    -0.25900
C1916       C  0.45377142  0.75658597  0.92966129     0.02700
C1917       C  0.44908000  0.74562884  0.90494433     0.27600
C1918       C  0.44756801  0.72159475  0.90400935    -0.25000
N1919       N  0.45871067  0.70552653  0.97636968    -0.82400
H1920       H  0.46128547  0.75121642  0.97181644     0.13400
C1921       C  0.45463852  0.78229069  0.93121303     0.02700
N1922       N  0.44544189  0.75900763  0.88075130    -0.81000
H1923       H  0.44541313  0.71407365  0.88438273     0.18200
C1924       C  0.46825244  0.79471589  0.91301539    -0.25800
C1925       C  0.46691773  0.81877196  0.91105913     0.36200
C1926       C  0.45242238  0.83134389  0.92843537    -0.19800
C1927       C  0.43972583  0.81873749  0.94770133    -0.25100
C1928       C  0.44047995  0.79456173  0.94903112     0.27600
H1929       H  0.47944913  0.78559164  0.89940406     0.13300
N1930       N  0.47991589  0.83033497  0.89069541    -0.82400
H1931       H  0.42814801  0.82717632  0.96117755     0.18200
N1932       N  0.42616635  0.78240495  0.96778652    -0.81000
H1933       H  0.49724587  0.82645919  0.89385224     0.33800
H1934       H  0.47503194  0.82382873  0.87188380     0.38300
H1935       H  0.41686465  0.79382516  0.97967689     0.33800
H1936       H  0.41415243  0.77311477  0.95656413     0.30500
H1937       H  0.44231264  0.74844658  0.86415660     0.33800
H1938       H  0.43059292  0.76878816  0.88343204     0.30500
H1939       H  0.47343997  0.69559576  0.97371096     0.38400
H1940       H  0.46207891  0.71623950  0.99277121     0.33800
C1941       C  0.57726030  0.54681318  0.91370173    -0.19900
C1942       C  0.56258428  0.55238928  0.89180111     0.36300
C1943       C  0.54601569  0.56976159  0.89470632    -0.25900
C1944       C  0.54364207  0.58146525  0.91915356     0.02700
C1945       C  0.55849708  0.57617021  0.94095938     0.27600
C1946       C  0.57539321  0.55905191  0.93791344    -0.25000
N1947       N  0.56447950  0.54026016  0.86674427    -0.82400
H1948       H  0.53451310  0.57385731  0.87805100     0.13400
C1949       C  0.52456581  0.59819315  0.92201817     0.02700
N1950       N  0.55596875  0.58783735  0.96623492    -0.81000
H1951       H  0.58660413  0.55468205  0.95474125     0.18200
C1952       C  0.50482440  0.59148419  0.93577399    -0.25800
C1953       C  0.48585457  0.60623405  0.93788204     0.36200
C1954       C  0.48636972  0.62834154  0.92589285    -0.19800
C1955       C  0.50643691  0.63504183  0.91225964    -0.25100
C1956       C  0.52551880  0.62023842  0.91031143     0.27600
H1957       H  0.50406821  0.57453638  0.94485035     0.13300
N1958       N  0.46637730  0.59862593  0.95275265    -0.82400
H1959       H  0.50712528  0.65171134  0.90254859     0.18200
N1960       N  0.54578259  0.62738134  0.89628581    -0.81000
H1961       H  0.46013976  0.58373388  0.94365892     0.33800
H1962       H  0.47188825  0.59428291  0.97228018     0.38300
H1963       H  0.54375052  0.64403648  0.88868239     0.33800
H1964       H  0.55919560  0.62798436  0.91041554     0.30500
H1965       H  0.56802778  0.58179182  0.98033450     0.33800
H1966       H  0.55965402  0.60515347  0.96290018     0.30500
H1967       H  0.58057910  0.54395728  0.85870178     0.38400
H1968       H  0.55231220  0.54623580  0.85274264     0.33800
C1969       C  0.41444674  0.63480918  0.96728566    -0.19900
C1970       C  0.39029035  0.63555298  0.96670264     0.36300
C1971       C  0.37782285  0.62304937  0.98610503    -0.25900
C1972       C  0.38908455  0.60956312  0.00574973     0.02700
C1973       C  0.41327480  0.60853369  0.00601004     0.27600
C1974       C  0.42567324  0.62164793  0.98716654    -0.25000
N1975       N  0.37857486  0.64898570  0.94640500    -0.82400
H1976       H  0.35925054  0.62355533  0.98573426     0.13400
C1977       C  0.37530005  0.59567076  0.02494890     0.02700
N1978       N  0.42512098  0.59341856  0.02452154    -0.81000
H1979       H  0.44418937  0.62174759  0.98810762     0.18200
C1980       C  0.36528610  0.57521978  0.01592408    -0.25800
C1981       C  0.35226267  0.56137537  0.03341041     0.36200
C1982       C  0.34974773  0.56785081  0.06061800    -0.19800
C1983       C  0.35935578  0.58849950  0.06953969    -0.25100
C1984       C  0.37166042  0.60280040  0.05178766     0.27600
H1985       H  0.36763489  0.57009866  0.99512993     0.13300
N1986       N  0.34146597  0.54086727  0.02364654    -0.82400
H1987       H  0.35671779  0.59374048  0.09022991     0.18200
N1988       N  0.37941220  0.62496682  0.06050407    -0.81000
H1989       H  0.34479121  0.53865907  0.00310502     0.33800
H1990       H  0.34890489  0.52690796  0.03376016     0.38300
H1991       H  0.37457159  0.62790404  0.08047492     0.33800
H1992       H  0.39729192  0.62508014  0.06037849     0.30500
H1993       H  0.44279869  0.59398306  0.02125361     0.33800
H1994       H  0.42256190  0.59931898  0.04411629     0.30500
H1995       H  0.38228205  0.64182672  0.92762944     0.38400
H1996       H  0.36082305  0.64781216  0.94880432     0.33800
C1997       C  0.28033470  0.60883591  0.66576518    -0.19900
C1998       C  0.26639471  0.61826100  0.68612579     0.36300
C1999       C  0.24249321  0.61611587  0.68420476    -0.25900
C2000       C  0.23217991  0.60469246  0.66249256     0.02700
C2001       C  0.24604933  0.59436768  0.64277115     0.27600
C2002       C  0.27006199  0.59640429  0.64469948    -0.25000
N2003       N  0.27652908  0.63030467  0.70847113    -0.82400
H2004       H  0.23176015  0.62401592  0.69931087     0.13400
C2005       C  0.20682044  0.60521977  0.65997357     0.02700
N2006       N  0.23564375  0.58232851  0.62062022    -0.81000
H2007       H  0.28070638  0.58915449  0.62907275     0.18200
C2008       C  0.19672650  0.61659788  0.63783944    -0.25800
C2009       C  0.17288724  0.62005063  0.63631885     0.36200
C2010       C  0.15886806  0.61206733  0.65757364    -0.19800
C2011       C  0.16895114  0.59974931  0.67909474    -0.25100
C2012       C  0.19279322  0.59631912  0.68055176     0.27600
H2013       H  0.20759760  0.62343145  0.62208837     0.13300
N2014       N  0.16296247  0.63184757  0.61344387    -0.82400
H2015       H  0.15830036  0.59347569  0.69535554     0.18200
N2016       N  0.20292032  0.58426775  0.70310980    -0.81000
H2017       H  0.17567984  0.63686717  0.59988158     0.33800
H2018       H  0.15252588  0.62016077  0.60321443     0.38300
H2019       H  0.19029128  0.57897171  0.71663386     0.33800
H2020       H  0.21057068  0.56938362  0.69567734     0.30500
H2021       H  0.24819932  0.57587880  0.60775409     0.33800
H2022       H  0.22703520  0.56816530  0.62863439     0.30500
H2023       H  0.28629423  0.61846878  0.71962633     0.38400
H2024       H  0.26388185  0.63643645  0.72142456     0.33800
C2025       C  0.35196226  0.70226696  0.66370375    -0.19900
C2026       C  0.36826482  0.71567595  0.64975630     0.36300
C2027       C  0.36779278  0.73963092  0.65229649    -0.25900
C2028       C  0.35102950  0.75055039  0.66774631     0.02700
C2029       C  0.33437628  0.73732353  0.68112879     0.27600
C2030       C  0.33505859  0.71331123  0.67905454    -0.25000
N2031       N  0.38491301  0.70506837  0.63257512    -0.82400
H2032       H  0.38015773  0.74995834  0.64147386     0.13400
C2033       C  0.35037434  0.77594245  0.66808849     0.02700
N2034       N  0.31690211  0.74834583  0.69676078    -0.81000
H2035       H  0.32240327  0.70318702  0.68966090     0.18200
C2036       C  0.33110734  0.78727909  0.65738848    -0.25800
C2037       C  0.33052033  0.81127107  0.65497652     0.36200
C2038       C  0.34963324  0.82422746  0.66368785    -0.19800
C2039       C  0.36883312  0.81281163  0.67471857    -0.25100
C2040       C  0.36932411  0.78879353  0.67719005     0.27600
H2041       H  0.31673910  0.77727003  0.65007629     0.13300
N2042       N  0.31083892  0.82238799  0.64302987    -0.82400
H2043       H  0.38343926  0.82266770  0.68164837     0.18200
N2044       N  0.38894167  0.77736320  0.68886988    -0.81000
H2045       H  0.29816807  0.81040629  0.63822920     0.33800
H2046       H  0.31601701  0.82972527  0.62474839     0.38300
H2047       H  0.40145218  0.78926521  0.69447739     0.33800
H2048       H  0.38360739  0.76926875  0.70664210     0.30500
H2049       H  0.30585458  0.73618821  0.70515818     0.33800
H2050       H  0.32500581  0.75657599  0.71290133     0.30500
H2051       H  0.37601143  0.69776571  0.61635268     0.38400
H2052       H  0.39586110  0.71735009  0.62427927     0.33800
C2053       C  0.38678097  0.61409918  0.73887888    -0.19900
C2054       C  0.37471680  0.60368412  0.76048713     0.36300
C2055       C  0.38290165  0.60611555  0.78716471    -0.25900
C2056       C  0.40260120  0.61893524  0.79289993     0.02700
C2057       C  0.41522130  0.62847314  0.77145153     0.27600
C2058       C  0.40733666  0.62575551  0.74470708    -0.25000
N2059       N  0.35370235  0.59150474  0.75561824    -0.82400
H2060       H  0.37328292  0.59885298  0.80376821     0.13400
C2061       C  0.40854234  0.62425164  0.82145339     0.02700
N2062       N  0.43550174  0.64165688  0.77700646    -0.81000
H2063       H  0.41676510  0.63377772  0.72844344     0.18200
C2064       C  0.42882542  0.61554388  0.83308493    -0.25800
C2065       C  0.43595271  0.62233734  0.85904513     0.36200
C2066       C  0.42271300  0.63820235  0.87358699    -0.19800
C2067       C  0.40189113  0.64606105  0.86242705    -0.25100
C2068       C  0.39467776  0.63927783  0.83651042     0.27600
H2069       H  0.43950153  0.60396329  0.82163381     0.13300
N2070       N  0.45725054  0.61405377  0.86993963    -0.82400
H2071       H  0.39167434  0.65825065  0.87359264     0.18200
N2072       N  0.37373907  0.64821322  0.82501195    -0.81000
H2073       H  0.47030689  0.61855775  0.85660028     0.33800
H2074       H  0.45646189  0.59615722  0.87093131     0.38300
H2075       H  0.36549289  0.65894081  0.83872488     0.33800
H2076       H  0.37806462  0.65844693  0.80840942     0.30500
H2077       H  0.44286101  0.64746151  0.75904389     0.33800
H2078       H  0.43051665  0.65626270  0.78762705     0.30500
H2079       H  0.34118075  0.60364358  0.75037473     0.38400
H2080       H  0.34800294  0.58361724  0.77334732     0.33800
C2081       C  0.29087248  0.63751732  0.36004903    -0.19900
C2082       C  0.27945281  0.61665926  0.36578074     0.36300
C2083       C  0.25541764  0.61591673  0.36444141    -0.25900
C2084       C  0.24260010  0.63558687  0.35814206     0.02700
C2085       C  0.25383124  0.65646651  0.35293530     0.27600
C2086       C  0.27786399  0.65724482  0.35399271    -0.25000
N2087       N  0.29216499  0.59639094  0.37324549    -0.82400
H2088       H  0.24655273  0.60003407  0.36886157     0.13400
C2089       C  0.21732352  0.63427066  0.35821851     0.02700
N2090       N  0.24074259  0.67671097  0.34639045    -0.81000
H2091       H  0.28645723  0.67327385  0.34960728     0.18200
C2092       C  0.20526197  0.64636360  0.37788876    -0.25800
C2093       C  0.18127600  0.64524264  0.37920149     0.36200
C2094       C  0.16911807  0.63196454  0.36008583    -0.19800
C2095       C  0.18132179  0.61967283  0.34053273    -0.25100
C2096       C  0.20534514  0.62077673  0.33934179     0.27600
H2097       H  0.21469479  0.65643749  0.39253999     0.13300
N2098       N  0.16933236  0.65718567  0.40016666    -0.82400
H2099       H  0.17207175  0.60947349  0.32585234     0.18200
N2100       N  0.21763540  0.60845364  0.31896679    -0.81000
H2101       H  0.18081818  0.66636057  0.41226712     0.33800
H2102       H  0.16184394  0.64484002  0.41268779     0.38300
H2103       H  0.20628520  0.59927950  0.30668824     0.33800
H2104       H  0.22559145  0.62054026  0.30650956     0.30500
H2105       H  0.25158397  0.69070910  0.34325218     0.33800
H2106       H  0.23226210  0.67377647  0.32805164     0.30500
H2107       H  0.29999664  0.59949826  0.39194293     0.38400
H2108       H  0.28115113  0.58249223  0.37615380     0.33800
C2109       C  0.38276497  0.71423904  0.35792310    -0.19900
C2110       C  0.37758212  0.72819180  0.38031761     0.36300
C2111       C  0.37802056  0.75214210  0.37738775    -0.25900
C2112       C  0.38331319  0.76248994  0.35257962     0.02700
C2113       C  0.39004657  0.74868736  0.33074835     0.27600
C2114       C  0.38997486  0.72465979  0.33375964    -0.25000
N2115       N  0.37135895  0.71804117  0.40575500    -0.82400
H2116       H  0.37331887  0.76287185  0.39426461     0.13400
C2117       C  0.37945113  0.78753610  0.34932934     0.02700
N2118       N  0.39587908  0.75904744  0.30529969    -0.81000
H2119       H  0.39414837  0.71404818  0.31660240     0.18200
C2120       C  0.39766186  0.80215541  0.34273582    -0.25800
C2121       C  0.39437298  0.82607520  0.34073235     0.36200
C2122       C  0.37240887  0.83547355  0.34577202    -0.19800
C2123       C  0.35418208  0.82060598  0.35166605    -0.25100
C2124       C  0.35742328  0.79683380  0.35333684     0.27600
H2125       H  0.41451760  0.79488175  0.33946994     0.13300
N2126       N  0.41324534  0.84070948  0.33377507    -0.82400
H2127       H  0.33724754  0.82753976  0.35531121     0.18200
N2128       N  0.33840114  0.78201291  0.35920228    -0.81000
H2129       H  0.42824233  0.83109535  0.33141359     0.33800
H2130       H  0.40953471  0.84803235  0.31489702     0.38300
H2131       H  0.32338778  0.79153825  0.36187790     0.33800
H2132       H  0.33564145  0.77168692  0.34231187     0.30500
H2133       H  0.40047770  0.74650147  0.29134489     0.33800
H2134       H  0.38114823  0.76708564  0.29760159     0.30500
H2135       H  0.38565109  0.70904596  0.41310181     0.38400
H2136       H  0.36771177  0.73071308  0.41995695     0.33800
C2137       C  0.38456674  0.61287985  0.43561843    -0.19900
C2138       C  0.37179281  0.59483505  0.44743956     0.36300
C2139       C  0.37194991  0.59198867  0.47568074    -0.25900
C2140       C  0.38461511  0.60666339  0.49233301     0.02700
C2141       C  0.39871219  0.62352006  0.48056130     0.27600
C2142       C  0.39880314  0.62625176  0.45227739    -0.25000
N2143       N  0.35787299  0.58013000  0.43090049    -0.82400
H2144       H  0.36109283  0.57912773  0.48489798     0.13400
C2145       C  0.37943510  0.60722604  0.52160163     0.02700
N2146       N  0.41190596  0.63859107  0.49746394    -0.81000
H2147       H  0.40869872  0.64004854  0.44344638     0.18200
C2148       C  0.39389168  0.59648155  0.54067959    -0.25800
C2149       C  0.38955841  0.59822066  0.56866856     0.36200
C2150       C  0.37046562  0.61114071  0.57750368    -0.19800
C2151       C  0.35575615  0.62113588  0.55806259    -0.25100
C2152       C  0.36001573  0.61933052  0.53037121     0.27600
H2153       H  0.40872139  0.58705923  0.53371927     0.13300
N2154       N  0.40463484  0.58729205  0.58793591    -0.82400
H2155       H  0.34085949  0.63073321  0.56448226     0.18200
N2156       N  0.34474324  0.62992568  0.51099315    -0.81000
H2157       H  0.41744874  0.57808323  0.57804337     0.33800
H2158       H  0.41294169  0.60020852  0.59875002     0.38300
H2159       H  0.33099909  0.63783839  0.52068306     0.33800
H2160       H  0.35378128  0.64295681  0.50118406     0.30500
H2161       H  0.42145558  0.64997726  0.48569155     0.33800
H2162       H  0.40042605  0.64858214  0.50847698     0.30500
H2163       H  0.36890430  0.57086551  0.41849210     0.38400
H2164       H  0.34923553  0.56809745  0.44278016     0.33800
C2165       C  0.34715779  0.55475053  0.15389627    -0.19900
C2166       C  0.33976910  0.54726615  0.17958169     0.36300
C2167       C  0.34853112  0.55758345  0.20295485    -0.25900
C2168       C  0.36503952  0.57490257  0.20134224     0.02700
C2169       C  0.37416916  0.58090880  0.17596014     0.27600
C2170       C  0.36508354  0.57075926  0.15240131    -0.25000
N2171       N  0.32340189  0.52910786  0.18205386    -0.82400
H2172       H  0.34183568  0.55256734  0.22247270     0.13400
C2173       C  0.37008904  0.58831489  0.22603198     0.02700
N2174       N  0.39256698  0.59719911  0.17422467    -0.81000
H2175       H  0.37139927  0.57604235  0.13283865     0.18200
C2176       C  0.38539463  0.57979908  0.24571700    -0.25800
C2177       C  0.38758135  0.59045430  0.27117608     0.36200
C2178       C  0.37421545  0.61015750  0.27685818    -0.19800
C2179       C  0.35960590  0.61897315  0.25648808    -0.25100
C2180       C  0.35722203  0.60818477  0.23139805     0.27600
H2181       H  0.39497877  0.56429456  0.24155845     0.13300
N2182       N  0.40282504  0.58094482  0.29128928    -0.82400
H2183       H  0.34924631  0.63400689  0.26042037     0.18200
N2184       N  0.34070456  0.61654069  0.21191772    -0.81000
H2185       H  0.41205001  0.56716218  0.28339359     0.33800
H2186       H  0.39273135  0.57414652  0.30672171     0.38300
H2187       H  0.33187755  0.63072721  0.21942426     0.33800
H2188       H  0.34959834  0.62234924  0.19499192     0.30500
H2189       H  0.39755082  0.59942524  0.15414130     0.33800
H2190       H  0.38650447  0.61308122  0.18069979     0.30500
H2191       H  0.30928740  0.53534233  0.19264496     0.38400
H2192       H  0.33089317  0.51592548  0.19353645     0.33800
loop_ 
_geom_bond_atom_site_label_1 
_geom_bond_atom_site_label_2 
_geom_bond_distance 
_geom_bond_site_symmetry_2 
_ccdc_geom_bond_type 
O1            C4   1.265       .  A
O1           Cd6   2.449       .  S
C2           O11   1.263       .  A
C2            O7   1.266       .  A
C2         C2081   1.481       .  S
O3            C9   1.270       .  A
O3           Cd6   2.534       .  S
C4           O12   1.268       .  A
C4         C2109   1.484       .  S
C5           O10   1.262       .  A
C5            O8   1.268       .  A
C5         C2137   1.490       .  S
Cd6          O13   2.428       .  S
Cd6          O12   2.488       .  S
Cd6          O11   2.440       .  S
Cd6           O7   2.465       .  S
Cd6          O10   2.447       .  S
Cd6           O8   2.506       .  S
C9           O13   1.262       .  A
C9         C2178   1.495       .  S
O14          C17   1.263       .  A
O14         Cd19   2.420       .  S
C15          O24   1.266       .  A
C15          O20   1.264       .  A
C15        C2025   1.484       .  S
O16          C22   1.264       .  A
O16         Cd19   2.483       .  S
C17          O25   1.269       .  A
C17        C1997   1.481       .  S
C18          O23   1.270       .  A
C18          O21   1.262       .  A
C18        C2150   1.491       .  S
Cd19         O26   2.486       .  S
Cd19         O25   2.499       .  S
Cd19         O24   2.459       .  S
Cd19         O20   2.457       .  S
Cd19         O23   2.542       .  S
Cd19         O21   2.418       .  S
C22          O26   1.265       .  A
C22        C2053   1.495       .  S
C27          C28   1.542       .  S
C27          C33   1.547       .  S
C27          C31   1.543       .  S
C27        C1913   1.552       .  S
C28          H35   1.086       .  S
C28          C29   1.367       .  D
C29          C30   1.544       .  S
C29        C1969   1.486       .  S
C30          C34   1.537       .  S
C30          C32   1.545       .  S
C30          H36   1.108       .  S
C31          H37   1.086       .  S
C31          C32   1.374       .  D
C32        C1954   1.505       .  S
C33          H38   1.081       .  S
C33          C34   1.362       .  D
C34        C2066   1.489       .  S
C39          C40   1.544       .  S
C39          C45   1.547       .  S
C39          C43   1.539       .  S
C39        C1857   1.546       .  S
C40          H47   1.086       .  S
C40          C41   1.366       .  D
C41          C42   1.538       .  S
C41        C1982   1.484       .  S
C42          C46   1.536       .  S
C42          C44   1.537       .  S
C42          H48   1.111       .  S
C43          H49   1.086       .  S
C43          C44   1.367       .  D
C44        C1885   1.483       .  S
C45          H50   1.081       .  S
C45          C46   1.367       .  D
C46        C2165   1.492       .  S
C51          C52   1.549       .  S
C51          C57   1.541       .  S
C51          C55   1.544       .  S
C51        C1773   1.548       .  S
C52          H59   1.080       .  S
C52          C53   1.362       .  D
C53          C54   1.529       .  S
C53        C1801   1.484       .  S
C54          C58   1.539       .  S
C54          C56   1.535       .  S
C54          H60   1.111       .  S
C55          H61   1.086       .  S
C55          C56   1.370       .  D
C56        C1898   1.487       .  S
C57          H62   1.086       .  S
C57          C58   1.368       .  D
C58        C1842   1.487       .  S
C63          C64   1.549       .  S
C63          C69   1.537       .  S
C63          C67   1.546       .  S
C63        C1717   1.550       .  S
C64          H71   1.078       .  S
C64          C65   1.368       .  D
C65          C66   1.541       .  S
C65        C1745   1.501       .  S
C66          C70   1.543       .  S
C66          C68   1.539       .  S
C66          H72   1.109       .  S
C67          H73   1.086       .  S
C67          C68   1.370       .  D
C68        C1941   1.487       .  S
C69          H74   1.086       .  S
C69          C70   1.364       .  D
C70        C1829   1.485       .  S
O75          C78   1.263       .  A
O75         Cd80   2.421       .  S
C76          O85   1.268       .  A
C76          O81   1.263       .  A
C76        C1633   1.479       .  S
O77          C83   1.264       .  A
O77         Cd80   2.458       .  S
C78          O86   1.268       .  A
C78        C1661   1.487       .  S
C79          O84   1.267       .  A
C79          O82   1.260       .  A
C79        C1814   1.490       .  S
Cd80         O87   2.494       .  S
Cd80         O86   2.492       .  S
Cd80         O85   2.478       .  S
Cd80         O81   2.422       .  S
Cd80         O84   2.525       .  S
Cd80         O82   2.442       .  S
C83          O87   1.266       .  A
C83        C1689   1.487       .  S
O88          C91   1.263       .  A
O88         Cd93   2.425       .  S
C89          O98   1.266       .  A
C89          O94   1.265       .  A
C89        C1605   1.482       .  S
O90          C96   1.266       .  A
O90         Cd93   2.508       .  S
C91          O99   1.268       .  A
C91        C1577   1.485       .  S
C92          O97   1.265       .  A
C92          O95   1.265       .  A
C92        C1758   1.492       .  S
Cd93        O100   2.429       .  S
Cd93         O99   2.504       .  S
Cd93         O98   2.466       .  S
Cd93         O94   2.451       .  S
Cd93         O97   2.482       .  S
Cd93         O95   2.470       .  S
C96         O100   1.262       .  A
C96        C1702   1.486       .  S
O101        C104   1.266       .  A
O101       Cd106   2.456       .  S
C102        O111   1.267       .  A
C102        O107   1.265       .  A
C102       C2122   1.486       .  S
O103        C109   1.263       .  A
O103       Cd106   2.465       .  S
C104        O112   1.266       .  A
C104       C1493   1.481       .  S
C105        O110   1.264       .  A
C105        O108   1.264       .  A
C105       C1521   1.487       .  S
Cd106       O113   2.471       .  S
Cd106       O112   2.446       .  S
Cd106       O111   2.482       .  S
Cd106       O107   2.437       .  S
Cd106       O110   2.463       .  S
Cd106       O108   2.465       .  S
C109        O113   1.263       .  A
C109       C1549   1.486       .  S
O114        C117   1.268       .  A
O114       Cd119   2.505       .  S
C115        O124   1.265       .  A
C115        O120   1.265       .  A
C115       C2038   1.482       .  S
O116        C122   1.262       .  A
O116       Cd119   2.440       .  S
C117        O125   1.265       .  A
C117       C1437   1.486       .  S
C118        O123   1.262       .  A
C118        O121   1.267       .  A
C118       C1465   1.494       .  S
Cd119       O126   2.517       .  S
Cd119       O125   2.436       .  S
Cd119       O124   2.454       .  S
Cd119       O120   2.468       .  S
Cd119       O123   2.453       .  S
Cd119       O121   2.516       .  S
C122        O126   1.268       .  A
C122       C1534   1.491       .  S
C127        C128   1.537   1_545  S
C127        C133   1.552   1_545  S
C127        C131   1.542       .  S
C127       C1353   1.548       .  S
C128        H135   1.086       .  S
C128        C129   1.369       .  D
C129        C130   1.542   1_565  S
C129       C1562   1.496       .  S
C130        C134   1.535   1_545  S
C130        C132   1.537       .  S
C130        H136   1.109       .  S
C131        H137   1.086       .  S
C131        C132   1.365       .  D
C132       C1381   1.479       .  S
C133        H138   1.081       .  S
C133        C134   1.368       .  D
C134       C1422   1.488       .  S
C139        C140   1.540       .  S
C139        C145   1.548       .  S
C139        C143   1.544       .  S
C139       C1926   1.550       .  S
C140        H147   1.086       .  S
C140        C141   1.369       .  D
C141        C142   1.539       .  S
C141       C1478   1.494       .  S
C142        C146   1.537       .  S
C142        C144   1.538       .  S
C142        H148   1.110       .  S
C143        H149   1.086       .  S
C143        C144   1.369       .  D
C144       C1325   1.486       .  S
C145        H150   1.080       .  S
C145        C146   1.366       .  D
C146       C1409   1.491       .  S
C151        C152   1.536       .  S
C151        C157   1.546       .  S
C151        C155   1.543       .  S
C151       C1254   1.545       .  S
C152        H159   1.086       .  S
C152        C153   1.364       .  D
C153        C154   1.538       .  S
C153       C1310   1.488       .  S
C154        C158   1.536       .  S
C154        C156   1.542       .  S
C154        H160   1.110       .  S
C155        H161   1.085   1_545  S
C155        C156   1.371       .  D
C156       C1338   1.494   1_545  S
C157        H162   1.080       .  S
C157        C158   1.366       .  D
C158       C1269   1.486       .  S
C163        C164   1.535       .  S
C163        C169   1.536       .  S
C163        C167   1.552       .  S
C163       C1786   1.548       .  S
C164        H171   1.086       .  S
C164        C165   1.363       .  D
C165        C166   1.540       .  S
C165       C1297   1.485       .  S
C166        C170   1.540       .  S
C166        C168   1.544       .  S
C166        H172   1.108       .  S
C167        H173   1.080       .  S
C167        C168   1.374       .  D
C168       C1394   1.495       .  S
C169        H174   1.086       .  S
C169        C170   1.364       .  D
C170       C1226   1.495       .  S
O175        C178   1.266       .  A
O175       Cd180   2.434       .  S
C176        O185   1.265       .  A
C176        O181   1.264       .  A
C176       C1646   1.478       .  S
O177        C183   1.266       .  A
O177       Cd180   2.498       .  S
C178        O186   1.269       .  A
C178       C1157   1.486       .  S
C179        O184   1.270       .  A
C179        O182   1.262       .  A
C179       C1185   1.479       .  S
Cd180       O187   2.444       .  S
Cd180       O186   2.485       .  S
Cd180       O185   2.465       .  S
Cd180       O181   2.423       .  S
Cd180       O184   2.497       .  S
Cd180       O182   2.414       .  S
C183        O187   1.262       .  A
C183       C1213   1.489       .  S
O188        C191   1.266       .  A
O188       Cd193   2.452       .  S
C189        O198   1.268       .  A
C189        O194   1.266       .  A
C189       C1590   1.486       .  S
O190        C196   1.264       .  A
O190       Cd193   2.463       .  S
C191        O199   1.265       .  A
C191       C1129   1.487       .  S
C192        O197   1.268       .  A
C192        O195   1.261       .  A
C192       C1282   1.489       .  S
Cd193       O200   2.488       .  S
Cd193       O199   2.465       .  S
Cd193       O198   2.480       .  S
Cd193       O194   2.430       .  S
Cd193       O197   2.513       .  S
Cd193       O195   2.423       .  S
C196        O200   1.265       .  A
C196       C1198   1.489       .  S
O201        C204   1.265       .  A
O201       Cd206   2.453       .  S
C202        O211   1.265       .  A
C202        O207   1.264       .  A
C202       C2094   1.479       .  S
O203        C209   1.267       .  A
O203       Cd206   2.516       .  S
C204        O212   1.267       .  A
C204       C1045   1.488       .  S
C205        O210   1.263       .  A
C205        O208   1.266       .  A
C205       C1114   1.491       .  S
Cd206       O213   2.439       .  S
Cd206       O212   2.488       .  S
Cd206       O211   2.465       .  S
Cd206       O207   2.454       .  S
Cd206       O210   2.467       .  S
Cd206       O208   2.486       .  S
C209        O213   1.262       .  A
C209       C1073   1.491       .  S
O214        C217   1.264       .  A
O214       Cd219   2.453       .  S
C215        O224   1.266       .  A
C215        O220   1.265       .  A
C215        C989   1.482       .  S
O216        C222   1.268       .  A
O216       Cd219   2.498       .  S
C217        O225   1.267       .  A
C217       C2010   1.484       .  S
C218        O223   1.268       .  A
C218        O221   1.263       .  A
C218       C1017   1.495       .  S
Cd219       O226   2.455       .  S
Cd219       O225   2.479       .  S
Cd219       O224   2.464       .  S
Cd219       O220   2.446       .  S
Cd219       O223   2.515       .  S
Cd219       O221   2.447       .  S
C222        O226   1.264       .  A
C222       C1086   1.489       .  S
C227        C228   1.544       .  S
C227        C233   1.543       .  S
C227        C231   1.544       .  S
C227        C905   1.552       .  S
C228        H235   1.081   1_655  S
C228        C229   1.362       .  D
C229        C230   1.538       .  S
C229       C1030   1.493   1_655  S
C230        C234   1.542   1_655  S
C230        C232   1.540       .  S
C230        H236   1.108       .  S
C231        H237   1.085       .  S
C231        C232   1.374       .  D
C232        C933   1.497       .  S
C233        H238   1.086   1_655  S
C233        C234   1.369   1_655  D
C234        C961   1.494       .  S
C239        C240   1.531       .  S
C239        C245   1.549       .  S
C239        C243   1.542       .  S
C239       C1870   1.543       .  S
C240        H247   1.087       .  S
C240        C241   1.362       .  D
C241        C242   1.541       .  S
C241       C1101   1.490       .  S
C242        C246   1.541       .  S
C242        C244   1.540       .  S
C242        H248   1.109       .  S
C243        H249   1.086       .  S
C243        C244   1.371       .  D
C244        C890   1.487       .  S
C245        H250   1.080       .  S
C245        C246   1.370       .  D
C246        C974   1.496       .  S
C251        C252   1.542       .  S
C251        C257   1.544       .  S
C251        C255   1.533       .  S
C251        C793   1.544       .  S
C252        H259   1.086       .  S
C252        C253   1.367       .  D
C253        C254   1.540       .  S
C253        C849   1.490       .  S
C254        C258   1.542       .  S
C254        C256   1.542       .  S
C254        H260   1.110       .  S
C255        H261   1.086       .  S
C255        C256   1.367       .  D
C256        C877   1.486       .  S
C257        H262   1.080       .  S
C257        C258   1.366       .  D
C258        C821   1.494       .  S
C263        C264   1.538       .  S
C263        C269   1.534       .  S
C263        C267   1.555       .  S
C263       C1730   1.550       .  S
C264        H271   1.086       .  S
C264        C265   1.369       .  D
C265        C266   1.547       .  S
C265        C862   1.498       .  S
C266        C270   1.542       .  S
C266        C268   1.539       .  S
C266        H272   1.109       .  S
C267        H273   1.081       .  S
C267        C268   1.370       .  D
C268        C946   1.485       .  S
C269        H274   1.086       .  S
C269        C270   1.362       .  D
C270        C765   1.493       .  S
O275        C278   1.263       .  A
O275       Cd280   2.446       .  S
C276        O285   1.269       .  A
C276        O281   1.264       .  A
C276       C1674   1.482       .  S
O277        C283   1.264       .  A
O277       Cd280   2.480       .  S
C278        O286   1.264       .  A
C278        C709   1.480       .  S
C279        O284   1.264       .  A
C279        O282   1.266       .  A
C279        C834   1.492       .  S
Cd280       O287   2.485       .  S
Cd280       O286   2.451       .  S
Cd280       O285   2.500       .  S
Cd280       O281   2.418       .  S
Cd280       O284   2.466       .  S
Cd280       O282   2.472       .  S
C283        O287   1.265       .  A
C283        C737   1.492       .  S
O288        C291   1.263       .  A
O288       Cd293   2.452       .  S
C289        O298   1.269       .  A
C289        O294   1.265       .  A
C289        C694   1.486       .  S
O290        C296   1.267       .  A
O290       Cd293   2.505       .  S
C291        O299   1.265       .  A
C291       C1618   1.485       .  S
C292        O297   1.268       .  A
C292        O295   1.261       .  A
C292        C778   1.494       .  S
Cd293       O300   2.468       .  S
Cd293       O299   2.475       .  S
Cd293       O298   2.483       .  S
Cd293       O294   2.410       .  S
Cd293       O297   2.534       .  S
Cd293       O295   2.443       .  S
C296        O300   1.263       .  A
C296        C750   1.495       .  S
O301        C304   1.265       .  A
O301       Cd306   2.470       .  S
C302        O311   1.265       .  A
C302        O307   1.263       .  A
C302       C1170   1.488       .  S
O303        C309   1.266       .  A
O303       Cd306   2.510       .  S
C304        O312   1.264       .  A
C304        C722   1.485       .  S
C305        O310   1.271       .  A
C305        O308   1.261       .  A
C305        C638   1.492       .  S
Cd306       O313   2.479       .  S
Cd306       O312   2.447       .  S
Cd306       O311   2.492       .  S
Cd306       O307   2.472       .  S
Cd306       O310   2.546       .  S
Cd306       O308   2.443       .  S
C309        O313   1.264       .  A
C309        C653   1.497       .  S
O314        C317   1.263       .  A
O314       Cd319   2.446       .  S
C315        O324   1.265       .  A
C315        O320   1.266       .  A
C315       C1142   1.485       .  S
O316        C322   1.267       .  A
O316       Cd319   2.526       .  S
C317        O325   1.266       .  A
C317        C681   1.481       .  S
C318        O323   1.263       .  A
C318        O321   1.265       .  A
C318        C610   1.484       .  S
Cd319       O326   2.450       .  S
Cd319       O325   2.485       .  S
Cd319       O324   2.461       .  S
Cd319       O320   2.465       .  S
Cd319       O323   2.456       .  S
Cd319       O321   2.497       .  S
C322        O326   1.262       .  A
C322        C625   1.495       .  S
C327        C328   1.543   1_545  S
C327        C333   1.546   1_545  S
C327        C331   1.543       .  S
C327       C1366   1.550       .  S
C328        H335   1.085       .  S
C328        C329   1.370       .  D
C329        C330   1.539       .  S
C329        C569   1.491       .  S
C330        C334   1.534       .  S
C330        C332   1.541   1_565  S
C330        H336   1.110       .  S
C331        H337   1.085       .  S
C331        C332   1.374       .  D
C332        C554   1.499       .  S
C333        H338   1.080       .  S
C333        C334   1.361       .  D
C334        C513   1.483       .  S
C339        C340   1.539   1_655  S
C339        C345   1.538       .  S
C339        C343   1.550       .  S
C339        C918   1.544       .  S
C340        H347   1.086       .  S
C340        C341   1.369       .  D
C341        C342   1.539   1_455  S
C341        C582   1.492       .  S
C342        C346   1.533       .  S
C342        C344   1.538       .  S
C342        H348   1.109       .  S
C343        H349   1.080       .  S
C343        C344   1.371       .  D
C344        C485   1.491       .  S
C345        H350   1.087       .  S
C345        C346   1.361       .  D
C346        C457   1.476   1_655  S
C351        C352   1.534       .  S
C351        C357   1.547       .  S
C351        C355   1.544       .  S
C351       C1241   1.539       .  S
C352        H359   1.087       .  S
C352        C353   1.360       .  D
C353        C354   1.534       .  S
C353        C597   1.482       .  S
C354        C358   1.537       .  S
C354        C356   1.538       .  S
C354        H360   1.110       .  S
C355        H361   1.085   1_545  S
C355        C356   1.372       .  D
C356        C498   1.492   1_545  S
C357        H362   1.082       .  S
C357        C358   1.366       .  D
C358        C442   1.479       .  S
C363        C364   1.536       .  S
C363        C369   1.550       .  S
C363        C367   1.543       .  S
C363        C806   1.543       .  S
C364        H371   1.087       .  S
C364        C365   1.363       .  D
C365        C366   1.536       .  S
C365        C666   1.490       .  S
C366        C370   1.537       .  S
C366        C368   1.542       .  S
C366        H372   1.109       .  S
C367        H373   1.086       .  S
C367        C368   1.369       .  D
C368        C541   1.492       .  S
C369        H374   1.082       .  S
C369        C370   1.368       .  D
C370        C429   1.486       .  S
O375        C378   1.265       .  A
O375       Cd380   2.445       .  S
C376        O385   1.265       .  A
C376        O381   1.265       .  A
C376       C1506   1.481       .  S
O377        C383   1.264       .  A
O377       Cd380   2.463       .  S
C378        O386   1.268       .  A
C378       C1058   1.491       .  S
C379        O384   1.264       .  A
C379        O382   1.265       .  A
C379        C401   1.488       .  S
Cd380       O387   2.481       .  S
Cd380       O386   2.496       .  S
Cd380       O385   2.450       .  S
Cd380       O381   2.458       .  S
Cd380       O384   2.467       .  S
Cd380       O382   2.473       .  S
C383        O387   1.265       .  A
C383        C526   1.489       .  S
O388        C391   1.263       .  A
O388       Cd393   2.430       .  S
C389        O398   1.269       .  A
C389        O394   1.264       .  A
C389       C1450   1.488       .  S
O390        C396   1.268       .  A
O390       Cd393   2.520       .  S
C391        O399   1.268       .  A
C391       C1002   1.485       .  S
C392        O397   1.264       .  A
C392        O395   1.266       .  A
C392        C470   1.488       .  S
Cd393       O400   2.412       .  S
Cd393       O399   2.483       .  S
Cd393       O398   2.507       .  S
Cd393       O394   2.419       .  S
Cd393       O397   2.459       .  S
Cd393       O395   2.482       .  S
C396        O400   1.261       .  A
C396        C414   1.479       .  S
C401        C402   1.415       .  A
C401        C406   1.407       .  A
C402        C403   1.407       .  A
C402        N407   1.437       .  S
C403        C404   1.403       .  A
C403        H408   1.083       .  S
C404        C409   1.487       .  S
C404        C405   1.410       .  A
C405        C406   1.405       .  A
C405        N410   1.438       .  S
C406        H411   1.083       .  S
N407        H427   1.046       .  S
N407        H428   1.045       .  S
C409        C412   1.402       .  A
C409        C416   1.412       .  A
N410        H425   1.045       .  S
N410        H426   1.046       .  S
C412        C413   1.400       .  A
C412        H417   1.084       .  S
C413        C414   1.412       .  A
C413        N418   1.439       .  S
C414        C415   1.405       .  A
C415        C416   1.411       .  A
C415        H419   1.083       .  S
C416        N420   1.437       .  S
N418        H421   1.045       .  S
N418        H422   1.046       .  S
N420        H423   1.045       .  S
N420        H424   1.046       .  S
C429        C430   1.409       .  A
C429        C434   1.405       .  A
C430        C431   1.404       .  A
C430        N435   1.432       .  S
C431        C432   1.402       .  A
C431        H436   1.084       .  S
C432        C437   1.482       .  S
C432        C433   1.409       .  A
C433        C434   1.406       .  A
C433        N438   1.438   1_554  S
C434        H439   1.083       .  S
N435        H455   1.045       .  S
N435        H456   1.046       .  S
C437        C440   1.403   1_554  A
C437        C444   1.409       .  A
N438        H453   1.045       .  S
N438        H454   1.046       .  S
C440        C441   1.406       .  A
C440        H445   1.084       .  S
C441        C442   1.408       .  A
C441        N446   1.437       .  S
C442        C443   1.402       .  A
C443        C444   1.406   1_556  A
C443        H447   1.081       .  S
C444        N448   1.438       .  S
N446        H449   1.045       .  S
N446        H450   1.046       .  S
N448        H451   1.045       .  S
N448        H452   1.046       .  S
C457        C458   1.404       .  A
C457        C462   1.399   1_455  A
C458        C459   1.406       .  A
C458        N463   1.432       .  S
C459        C460   1.407       .  A
C459        H464   1.084       .  S
C460        C465   1.490       .  S
C460        C461   1.413   1_455  A
C461        C462   1.404       .  A
C461        N466   1.438       .  S
C462        H467   1.083       .  S
N463        H483   1.046       .  S
N463        H484   1.045       .  S
C465        C468   1.403       .  A
C465        C472   1.410       .  A
N466        H481   1.045       .  S
N466        H482   1.046       .  S
C468        C469   1.403       .  A
C468        H473   1.084       .  S
C469        C470   1.417       .  A
C469        N474   1.439       .  S
C470        C471   1.408       .  A
C471        C472   1.409       .  A
C471        H475   1.083       .  S
C472        N476   1.437       .  S
N474        H477   1.046       .  S
N474        H478   1.045       .  S
N476        H479   1.046       .  S
N476        H480   1.045       .  S
C485        C486   1.413       .  A
C485        C490   1.407       .  A
C486        C487   1.402       .  A
C486        N491   1.431       .  S
C487        C488   1.399       .  A
C487        H492   1.084       .  S
C488        C493   1.477       .  S
C488        C489   1.406       .  A
C489        C490   1.406       .  A
C489        N494   1.437       .  S
C490        H495   1.083       .  S
N491        H511   1.046       .  S
N491        H512   1.045       .  S
C493        C496   1.400       .  A
C493        C500   1.405       .  A
N494        H509   1.046       .  S
N494        H510   1.046       .  S
C496        C497   1.407       .  A
C496        H501   1.084       .  S
C497        C498   1.416       .  A
C497        N502   1.437       .  S
C498        C499   1.406   1_565  A
C499        C500   1.403   1_545  A
C499        H503   1.079       .  S
C500        N504   1.438       .  S
N502        H505   1.046       .  S
N502        H506   1.046       .  S
N504        H507   1.046   1_565  S
N504        H508   1.045       .  S
C513        C514   1.410       .  A
C513        C518   1.401       .  A
C514        C515   1.407       .  A
C514        N519   1.438       .  S
C515        C516   1.405       .  A
C515        H520   1.084       .  S
C516        C521   1.489       .  S
C516        C517   1.411       .  A
C517        C518   1.407       .  A
C517        N522   1.437       .  S
C518        H523   1.081   1_565  S
N519        H539   1.046       .  S
N519        H540   1.046       .  S
C521        C524   1.402       .  A
C521        C528   1.409       .  A
N522        H537   1.045   1_565  S
N522        H538   1.046       .  S
C524        C525   1.405       .  A
C524        H529   1.084       .  S
C525        C526   1.417       .  A
C525        N530   1.438       .  S
C526        C527   1.408       .  A
C527        C528   1.408       .  A
C527        H531   1.083       .  S
C528        N532   1.437       .  S
N530        H533   1.046       .  S
N530        H534   1.046       .  S
N532        H535   1.046       .  S
N532        H536   1.046       .  S
C541        C542   1.414       .  A
C541        C546   1.406   1_655  A
C542        C543   1.406   1_655  A
C542        N547   1.437       .  S
C543        C544   1.401       .  A
C543        H548   1.084   1_455  S
C544        C549   1.485       .  S
C544        C545   1.410       .  A
C545        C546   1.409       .  A
C545        N550   1.437       .  S
C546        H551   1.084       .  S
N547        H567   1.046       .  S
N547        H568   1.045       .  S
C549        C552   1.402       .  A
C549        C556   1.408       .  A
N550        H565   1.046       .  S
N550        H566   1.045       .  S
C552        C553   1.410       .  A
C552        H557   1.084       .  S
C553        C554   1.417       .  A
C553        N558   1.437       .  S
C554        C555   1.407       .  A
C555        C556   1.406       .  A
C555        H559   1.079       .  S
C556        N560   1.438       .  S
N558        H561   1.045       .  S
N558        H562   1.046       .  S
N560        H563   1.046       .  S
N560        H564   1.045       .  S
C569        C570   1.415       .  A
C569        C574   1.405       .  A
C570        C571   1.408       .  A
C570        N575   1.437       .  S
C571        C572   1.401       .  A
C571        H576   1.084   1_554  S
C572        C577   1.482   1_554  S
C572        C573   1.409       .  A
C573        C574   1.407       .  A
C573        N578   1.438       .  S
C574        H579   1.083       .  S
N575        H595   1.045   1_565  S
N575        H596   1.046   1_554  S
C577        C580   1.400       .  A
C577        C584   1.409       .  A
N578        H593   1.046       .  S
N578        H594   1.045       .  S
C580        C581   1.407       .  A
C580        H585   1.084       .  S
C581        C582   1.414       .  A
C581        N586   1.438       .  S
C582        C583   1.407       .  A
C583        C584   1.408       .  A
C583        H587   1.083   1_455  S
C584        N588   1.438       .  S
N586        H589   1.045       .  S
N586        H590   1.046       .  S
N588        H591   1.046   1_455  S
N588        H592   1.045   1_556  S
C597        C598   1.408       .  A
C597        C602   1.405       .  A
C598        C599   1.399       .  A
C598        N603   1.433       .  S
C599        C600   1.402       .  A
C599        H604   1.084       .  S
C600        C605   1.482       .  S
C600        C601   1.410       .  A
C601        C602   1.410       .  A
C601        N606   1.437       .  S
C602        H607   1.084       .  S
N603        H623   1.046       .  S
N603        H624   1.045       .  S
C605        C608   1.402       .  A
C605        C612   1.409       .  A
N606        H621   1.046       .  S
N606        H622   1.046       .  S
C608        C609   1.410       .  A
C608        H613   1.084       .  S
C609        C610   1.413       .  A
C609        N614   1.437       .  S
C610        C611   1.406       .  A
C611        C612   1.403       .  A
C611        H615   1.084       .  S
C612        N616   1.438       .  S
N614        H617   1.046       .  S
N614        H618   1.046       .  S
N616        H619   1.046       .  S
N616        H620   1.045       .  S
C625        C626   1.417       .  A
C625        C630   1.407       .  A
C626        C627   1.407       .  A
C626        N631   1.438       .  S
C627        C628   1.404       .  A
C627        H632   1.083       .  S
C628        C633   1.500       .  S
C628        C629   1.415       .  A
C629        C630   1.412       .  A
C629        N634   1.437       .  S
C630        H635   1.083       .  S
N631        H651   1.046       .  S
N631        H652   1.045       .  S
C633        C636   1.404       .  A
C633        C640   1.416       .  A
N634        H649   1.046       .  S
N634        H650   1.046       .  S
C636        C637   1.407       .  A
C636        H641   1.083       .  S
C637        C638   1.415       .  A
C637        N642   1.438       .  S
C638        C639   1.405       .  A
C639        C640   1.413       .  A
C639        H643   1.083       .  S
C640        N644   1.437       .  S
N642        H645   1.045       .  S
N642        H646   1.046       .  S
N644        H647   1.045       .  S
N644        H648   1.046       .  S
C653        C654   1.419       .  A
C653        C658   1.408       .  A
C654        C655   1.412       .  A
C654        N659   1.438       .  S
C655        C656   1.401       .  A
C655        H660   1.084       .  S
C656        C661   1.487       .  S
C656        C657   1.408       .  A
C657        C658   1.408       .  A
C657        N662   1.438       .  S
C658        H663   1.083       .  S
N659        H679   1.046       .  S
N659        H680   1.046       .  S
C661        C664   1.401       .  A
C661        C668   1.410       .  A
N662        H677   1.045       .  S
N662        H678   1.045       .  S
C664        C665   1.403       .  A
C664        H669   1.084       .  S
C665        C666   1.420       .  A
C665        N670   1.440       .  S
C666        C667   1.406       .  A
C667        C668   1.411       .  A
C667        H671   1.084       .  S
C668        N672   1.437       .  S
N670        H673   1.046       .  S
N670        H674   1.043       .  S
N672        H675   1.046       .  S
N672        H676   1.044       .  S
C681        C682   1.414       .  A
C681        C686   1.405       .  A
C682        C683   1.403       .  A
C682        N687   1.438       .  S
C683        C684   1.402       .  A
C683        H688   1.084       .  S
C684        C689   1.482       .  S
C684        C685   1.410       .  A
C685        C686   1.406       .  A
C685        N690   1.438       .  S
C686        H691   1.083       .  S
N687        H707   1.046       .  S
N687        H708   1.046       .  S
C689        C692   1.403       .  A
C689        C696   1.409       .  A
N690        H705   1.045       .  S
N690        H706   1.046       .  S
C692        C693   1.409       .  A
C692        H697   1.084       .  S
C693        C694   1.416       .  A
C693        N698   1.437       .  S
C694        C695   1.406       .  A
C695        C696   1.400       .  A
C695        H699   1.083       .  S
C696        N700   1.439       .  S
N698        H701   1.046       .  S
N698        H702   1.045       .  S
N700        H703   1.046       .  S
N700        H704   1.046       .  S
C709        C710   1.416       .  A
C709        C714   1.407       .  A
C710        C711   1.403       .  A
C710        N715   1.438       .  S
C711        C712   1.399       .  A
C711        H716   1.084       .  S
C712        C717   1.473       .  S
C712        C713   1.406       .  A
C713        C714   1.402       .  A
C713        N718   1.438       .  S
C714        H719   1.083       .  S
N715        H735   1.046       .  S
N715        H736   1.045       .  S
C717        C720   1.399       .  A
C717        C724   1.405       .  A
N718        H733   1.046       .  S
N718        H734   1.046       .  S
C720        C721   1.405       .  A
C720        H725   1.084       .  S
C721        C722   1.417       .  A
C721        N726   1.438       .  S
C722        C723   1.408       .  A
C723        C724   1.402       .  A
C723        H727   1.083       .  S
C724        N728   1.438       .  S
N726        H729   1.046       .  S
N726        H730   1.045       .  S
N728        H731   1.045       .  S
N728        H732   1.046       .  S
C737        C738   1.416       .  A
C737        C742   1.408       .  A
C738        C739   1.407       .  A
C738        N743   1.438       .  S
C739        C740   1.404       .  A
C739        H744   1.083       .  S
C740        C745   1.494       .  S
C740        C741   1.411       .  A
C741        C742   1.409       .  A
C741        N746   1.437       .  S
C742        H747   1.083       .  S
N743        H763   1.045       .  S
N743        H764   1.046       .  S
C745        C748   1.403       .  A
C745        C752   1.411       .  A
N746        H761   1.046       .  S
N746        H762   1.046       .  S
C748        C749   1.408       .  A
C748        H753   1.084       .  S
C749        C750   1.418       .  A
C749        N754   1.438       .  S
C750        C751   1.407       .  A
C751        C752   1.409       .  A
C751        H755   1.083       .  S
C752        N756   1.437       .  S
N754        H757   1.046       .  S
N754        H758   1.045       .  S
N756        H759   1.045       .  S
N756        H760   1.046       .  S
C765        C766   1.417       .  A
C765        C770   1.406       .  A
C766        C767   1.403       .  A
C766        N771   1.438       .  S
C767        C768   1.398       .  A
C767        H772   1.084       .  S
C768        C773   1.483       .  S
C768        C769   1.411       .  A
C769        C770   1.412       .  A
C769        N774   1.437       .  S
C770        H775   1.083       .  S
N771        H791   1.043       .  S
N771        H792   1.045       .  S
C773        C776   1.403       .  A
C773        C780   1.408       .  A
N774        H789   1.046       .  S
N774        H790   1.044       .  S
C776        C777   1.412       .  A
C776        H781   1.084       .  S
C777        C778   1.416       .  A
C777        N782   1.437       .  S
C778        C779   1.409       .  A
C779        C780   1.404       .  A
C779        H783   1.083       .  S
C780        N784   1.439       .  S
N782        H785   1.046       .  S
N782        H786   1.045       .  S
N784        H787   1.046       .  S
N784        H788   1.044       .  S
C793        C794   1.424       .  A
C793        C798   1.412       .  A
C794        C795   1.410       .  A
C794        N799   1.439       .  S
C795        C796   1.401       .  A
C795        H800   1.084       .  S
C796        C801   1.488       .  S
C796        C797   1.407       .  A
C797        C798   1.404       .  A
C797        N802   1.439       .  S
C798        H803   1.075       .  S
N799        H819   1.044       .  S
N799        H820   1.045       .  S
C801        C804   1.400       .  A
C801        C808   1.407       .  A
N802        H817   1.045       .  S
N802        H818   1.046       .  S
C804        C805   1.407       .  A
C804        H809   1.084       .  S
C805        C806   1.424       .  A
C805        N810   1.439       .  S
C806        C807   1.415       .  A
C807        C808   1.408       .  A
C807        H811   1.077       .  S
C808        N812   1.439       .  S
N810        H813   1.046   1_655  S
N810        H814   1.044       .  S
N812        H815   1.045       .  S
N812        H816   1.046       .  S
C821        C822   1.416       .  A
C821        C826   1.405       .  A
C822        C823   1.404       .  A
C822        N827   1.438       .  S
C823        C824   1.399       .  A
C823        H828   1.084       .  S
C824        C829   1.482       .  S
C824        C825   1.408       .  A
C825        C826   1.411       .  A
C825        N830   1.437       .  S
C826        H831   1.079       .  S
N827        H847   1.045       .  S
N827        H848   1.046       .  S
C829        C832   1.400       .  A
C829        C836   1.406       .  A
N830        H845   1.045       .  S
N830        H846   1.046       .  S
C832        C833   1.408       .  A
C832        H837   1.084       .  S
C833        C834   1.420       .  A
C833        N838   1.438       .  S
C834        C835   1.408       .  A
C835        C836   1.407       .  A
C835        H839   1.083       .  S
C836        N840   1.437       .  S
N838        H841   1.046       .  S
N838        H842   1.046       .  S
N840        H843   1.045       .  S
N840        H844   1.046       .  S
C849        C850   1.412       .  A
C849        C854   1.406       .  A
C850        C851   1.410       .  A
C850        N855   1.437       .  S
C851        C852   1.404       .  A
C851        H856   1.084       .  S
C852        C857   1.485       .  S
C852        C853   1.408       .  A
C853        C854   1.406       .  A
C853        N858   1.438   1_554  S
C854        H859   1.084       .  S
N855        H875   1.045       .  S
N855        H876   1.046       .  S
C857        C860   1.400   1_554  A
C857        C864   1.409   1_554  A
N858        H873   1.046       .  S
N858        H874   1.045       .  S
C860        C861   1.406       .  A
C860        H865   1.084   1_556  S
C861        C862   1.413       .  A
C861        N866   1.430       .  S
C862        C863   1.409       .  A
C863        C864   1.409       .  A
C863        H867   1.083       .  S
C864        N868   1.438   1_556  S
N866        H869   1.046       .  S
N866        H870   1.045       .  S
N868        H871   1.046       .  S
N868        H872   1.045       .  S
C877        C878   1.415   1_655  A
C877        C882   1.402       .  A
C878        C879   1.406       .  A
C878        N883   1.438   1_455  S
C879        C880   1.400       .  A
C879        H884   1.084       .  S
C880        C885   1.476       .  S
C880        C881   1.407       .  A
C881        C882   1.404   1_455  A
C881        N886   1.438       .  S
C882        H887   1.079       .  S
N883        H903   1.045       .  S
N883        H904   1.046   1_655  S
C885        C888   1.400       .  A
C885        C892   1.407       .  A
N886        H901   1.045   1_455  S
N886        H902   1.046       .  S
C888        C889   1.403       .  A
C888        H893   1.084       .  S
C889        C890   1.412       .  A
C889        N894   1.432       .  S
C890        C891   1.405       .  A
C891        C892   1.404       .  A
C891        H895   1.083       .  S
C892        N896   1.438       .  S
N894        H897   1.046       .  S
N894        H898   1.045       .  S
N896        H899   1.045       .  S
N896        H900   1.045       .  S
C905        C906   1.423       .  A
C905        C910   1.415       .  A
C906        C907   1.415       .  A
C906        N911   1.438       .  S
C907        C908   1.402       .  A
C907        H912   1.083       .  S
C908        C913   1.491       .  S
C908        C909   1.404       .  A
C909        C910   1.405       .  A
C909        N914   1.439       .  S
C910        H915   1.075       .  S
N911        H931   1.045       .  S
N911        H932   1.046       .  S
C913        C916   1.400   1_655  A
C913        C920   1.408       .  A
N914        H929   1.045       .  S
N914        H930   1.046       .  S
C916        C917   1.404       .  A
C916        H921   1.084       .  S
C917        C918   1.419   1_455  A
C917        N922   1.433       .  S
C918        C919   1.415       .  A
C919        C920   1.412       .  A
C919        H923   1.075       .  S
C920        N924   1.438       .  S
N922        H925   1.046       .  S
N922        H926   1.045       .  S
N924        H927   1.046       .  S
N924        H928   1.046       .  S
C933        C934   1.416       .  A
C933        C938   1.407       .  A
C934        C935   1.410       .  A
C934        N939   1.437       .  S
C935        C936   1.403       .  A
C935        H940   1.083       .  S
C936        C941   1.492       .  S
C936        C937   1.411       .  A
C937        C938   1.407       .  A
C937        N942   1.438       .  S
C938        H943   1.083       .  S
N939        H959   1.045       .  S
N939        H960   1.046       .  S
C941        C944   1.404       .  A
C941        C948   1.414       .  A
N942        H957   1.046       .  S
N942        H958   1.046       .  S
C944        C945   1.407       .  A
C944        H949   1.084       .  S
C945        C946   1.408       .  A
C945        N950   1.435       .  S
C946        C947   1.402       .  A
C947        C948   1.410       .  A
C947        H951   1.083       .  S
C948        N952   1.437       .  S
N950        H953   1.045       .  S
N950        H954   1.046       .  S
N952        H955   1.046       .  S
N952        H956   1.045       .  S
C961        C962   1.412       .  A
C961        C966   1.406       .  A
C962        C963   1.407       .  A
C962        N967   1.432   1_455  S
C963        C964   1.402   1_556  A
C963        H968   1.084   1_556  S
C964        C969   1.487       .  S
C964        C965   1.410   1_554  A
C965        C966   1.410       .  A
C965        N970   1.437   1_556  S
C966        H971   1.083       .  S
N967        H987   1.046       .  S
N967        H988   1.045       .  S
C969        C972   1.400       .  A
C969        C976   1.411       .  A
N970        H985   1.045   1_554  S
N970        H986   1.046       .  S
C972        C973   1.404       .  A
C972        H977   1.084   1_554  S
C973        C974   1.415       .  A
C973        N978   1.432       .  S
C974        C975   1.406       .  A
C975        C976   1.413       .  A
C975        H979   1.083       .  S
C976        N980   1.437       .  S
N978        H981   1.045       .  S
N978        H982   1.046       .  S
N980        H983   1.046       .  S
N980        H984   1.045       .  S
C989        C990   1.415       .  A
C989        C994   1.405       .  A
C990        C991   1.406       .  A
C990        N995   1.438       .  S
C991        C992   1.402       .  A
C991        H996   1.084       .  S
C992        C997   1.483       .  S
C992        C993   1.410       .  A
C993        C994   1.402       .  A
C993        N998   1.438       .  S
C994        H999   1.083       .  S
N995       H1015   1.046       .  S
N995       H1016   1.046       .  S
C997       C1000   1.400       .  A
C997       C1004   1.410       .  A
N998       H1013   1.046       .  S
N998       H1014   1.045       .  S
C1000      C1001   1.403       .  A
C1000      H1005   1.084       .  S
C1001      C1002   1.417       .  A
C1001      N1006   1.438       .  S
C1002      C1003   1.406       .  A
C1003      C1004   1.406       .  A
C1003      H1007   1.083       .  S
C1004      N1008   1.438       .  S
N1006      H1009   1.046       .  S
N1006      H1010   1.045       .  S
N1008      H1011   1.045       .  S
N1008      H1012   1.046       .  S
C1017      C1018   1.417       .  A
C1017      C1022   1.409       .  A
C1018      C1019   1.412       .  A
C1018      N1023   1.437       .  S
C1019      C1020   1.404       .  A
C1019      H1024   1.084       .  S
C1020      C1025   1.489       .  S
C1020      C1021   1.408       .  A
C1021      C1022   1.405       .  A
C1021      N1026   1.439       .  S
C1022      H1027   1.083       .  S
N1023      H1043   1.045       .  S
N1023      H1044   1.046       .  S
C1025      C1028   1.407       .  A
C1025      C1032   1.410       .  A
N1026      H1041   1.045       .  S
N1026      H1042   1.046       .  S
C1028      C1029   1.410       .  A
C1028      H1033   1.084       .  S
C1029      C1030   1.409       .  A
C1029      N1034   1.431       .  S
C1030      C1031   1.407   1_455  A
C1031      C1032   1.403   1_655  A
C1031      H1035   1.084       .  S
C1032      N1036   1.439   1_455  S
N1034      H1037   1.045       .  S
N1034      H1038   1.046       .  S
N1036      H1039   1.045       .  S
N1036      H1040   1.046   1_655  S
C1045      C1046   1.415       .  A
C1045      C1050   1.408       .  A
C1046      C1047   1.405       .  A
C1046      N1051   1.438       .  S
C1047      C1048   1.401       .  A
C1047      H1052   1.084       .  S
C1048      C1053   1.483       .  S
C1048      C1049   1.408       .  A
C1049      C1050   1.409       .  A
C1049      N1054   1.437       .  S
C1050      H1055   1.083       .  S
N1051      H1071   1.046       .  S
N1051      H1072   1.046       .  S
C1053      C1056   1.401       .  A
C1053      C1060   1.408       .  A
N1054      H1069   1.046       .  S
N1054      H1070   1.045       .  S
C1056      C1057   1.410       .  A
C1056      H1061   1.084       .  S
C1057      C1058   1.418       .  A
C1057      N1062   1.437       .  S
C1058      C1059   1.408       .  A
C1059      C1060   1.403       .  A
C1059      H1063   1.083       .  S
C1060      N1064   1.438       .  S
N1062      H1065   1.046       .  S
N1062      H1066   1.046       .  S
N1064      H1067   1.046       .  S
N1064      H1068   1.045       .  S
C1073      C1074   1.416       .  A
C1073      C1078   1.407       .  A
C1074      C1075   1.413       .  A
C1074      N1079   1.437       .  S
C1075      C1076   1.404       .  A
C1075      H1080   1.083       .  S
C1076      C1081   1.487       .  S
C1076      C1077   1.409       .  A
C1077      C1078   1.402       .  A
C1077      N1082   1.439       .  S
C1078      H1083   1.083       .  S
N1079      H1099   1.046       .  S
N1079      H1100   1.045       .  S
C1081      C1084   1.403       .  A
C1081      C1088   1.409       .  A
N1082      H1097   1.045       .  S
N1082      H1098   1.046       .  S
C1084      C1085   1.408       .  A
C1084      H1089   1.084       .  S
C1085      C1086   1.416       .  A
C1085      N1090   1.438       .  S
C1086      C1087   1.407       .  A
C1087      C1088   1.407       .  A
C1087      H1091   1.084       .  S
C1088      N1092   1.438       .  S
N1090      H1093   1.046       .  S
N1090      H1094   1.046       .  S
N1092      H1095   1.046       .  S
N1092      H1096   1.045       .  S
C1101      C1102   1.414       .  A
C1101      C1106   1.405       .  A
C1102      C1103   1.411       .  A
C1102      N1107   1.437       .  S
C1103      C1104   1.402       .  A
C1103      H1108   1.084       .  S
C1104      C1109   1.482       .  S
C1104      C1105   1.408       .  A
C1105      C1106   1.403       .  A
C1105      N1110   1.438       .  S
C1106      H1111   1.084       .  S
N1107      H1127   1.045       .  S
N1107      H1128   1.046       .  S
C1109      C1112   1.400       .  A
C1109      C1116   1.407       .  A
N1110      H1125   1.046       .  S
N1110      H1126   1.045       .  S
C1112      C1113   1.407       .  A
C1112      H1117   1.084       .  S
C1113      C1114   1.418       .  A
C1113      N1118   1.438       .  S
C1114      C1115   1.408       .  A
C1115      C1116   1.408       .  A
C1115      H1119   1.083       .  S
C1116      N1120   1.438       .  S
N1118      H1121   1.045       .  S
N1118      H1122   1.046       .  S
N1120      H1123   1.045       .  S
N1120      H1124   1.045       .  S
C1129      C1130   1.417       .  A
C1129      C1134   1.407       .  A
C1130      C1131   1.406       .  A
C1130      N1135   1.438       .  S
C1131      C1132   1.402       .  A
C1131      H1136   1.084       .  S
C1132      C1137   1.483       .  S
C1132      C1133   1.408       .  A
C1133      C1134   1.403       .  A
C1133      N1138   1.438       .  S
C1134      H1139   1.083       .  S
N1135      H1155   1.046       .  S
N1135      H1156   1.046       .  S
C1137      C1140   1.401       .  A
C1137      C1144   1.409       .  A
N1138      H1153   1.046       .  S
N1138      H1154   1.045       .  S
C1140      C1141   1.405       .  A
C1140      H1145   1.084       .  S
C1141      C1142   1.415       .  A
C1141      N1146   1.438       .  S
C1142      C1143   1.407       .  A
C1143      C1144   1.406       .  A
C1143      H1147   1.083       .  S
C1144      N1148   1.438       .  S
N1146      H1149   1.045       .  S
N1146      H1150   1.046       .  S
N1148      H1151   1.046       .  S
N1148      H1152   1.045       .  S
C1157      C1158   1.416       .  A
C1157      C1162   1.405       .  A
C1158      C1159   1.410       .  A
C1158      N1163   1.438       .  S
C1159      C1160   1.404       .  A
C1159      H1164   1.084       .  S
C1160      C1165   1.487       .  S
C1160      C1161   1.410       .  A
C1161      C1162   1.403       .  A
C1161      N1166   1.438       .  S
C1162      H1167   1.084       .  S
N1163      H1183   1.046       .  S
N1163      H1184   1.046       .  S
C1165      C1168   1.402       .  A
C1165      C1172   1.411       .  A
N1166      H1181   1.046       .  S
N1166      H1182   1.045       .  S
C1168      C1169   1.407       .  A
C1168      H1173   1.084       .  S
C1169      C1170   1.416       .  A
C1169      N1174   1.438       .  S
C1170      C1171   1.406       .  A
C1171      C1172   1.407       .  A
C1171      H1175   1.083       .  S
C1172      N1176   1.438       .  S
N1174      H1177   1.046       .  S
N1174      H1178   1.046       .  S
N1176      H1179   1.045       .  S
N1176      H1180   1.046       .  S
C1185      C1186   1.414       .  A
C1185      C1190   1.405       .  A
C1186      C1187   1.401       .  A
C1186      N1191   1.439       .  S
C1187      C1188   1.400       .  A
C1187      H1192   1.084       .  S
C1188      C1193   1.480       .  S
C1188      C1189   1.408       .  A
C1189      C1190   1.409       .  A
C1189      N1194   1.436       .  S
C1190      H1195   1.083       .  S
N1191      H1211   1.045       .  S
N1191      H1212   1.046       .  S
C1193      C1196   1.400       .  A
C1193      C1200   1.406       .  A
N1194      H1209   1.046       .  S
N1194      H1210   1.045       .  S
C1196      C1197   1.407       .  A
C1196      H1201   1.084       .  S
C1197      C1198   1.417       .  A
C1197      N1202   1.437       .  S
C1198      C1199   1.408       .  A
C1199      C1200   1.404       .  A
C1199      H1203   1.083       .  S
C1200      N1204   1.438       .  S
N1202      H1205   1.046       .  S
N1202      H1206   1.045       .  S
N1204      H1207   1.046       .  S
N1204      H1208   1.046       .  S
C1213      C1214   1.417       .  A
C1213      C1218   1.408       .  A
C1214      C1215   1.405       .  A
C1214      N1219   1.438       .  S
C1215      C1216   1.400       .  A
C1215      H1220   1.084       .  S
C1216      C1221   1.486       .  S
C1216      C1217   1.410       .  A
C1217      C1218   1.409       .  A
C1217      N1222   1.438       .  S
C1218      H1223   1.083       .  S
N1219      H1239   1.045       .  S
N1219      H1240   1.046       .  S
C1221      C1224   1.402       .  A
C1221      C1228   1.409       .  A
N1222      H1237   1.046       .  S
N1222      H1238   1.046       .  S
C1224      C1225   1.411       .  A
C1224      H1229   1.084       .  S
C1225      C1226   1.416       .  A
C1225      N1230   1.436       .  S
C1226      C1227   1.406       .  A
C1227      C1228   1.404       .  A
C1227      H1231   1.084       .  S
C1228      N1232   1.438       .  S
N1230      H1233   1.046       .  S
N1230      H1234   1.045       .  S
N1232      H1235   1.046       .  S
N1232      H1236   1.046       .  S
C1241      C1242   1.420       .  A
C1241      C1246   1.413       .  A
C1242      C1243   1.402       .  A
C1242      N1247   1.433       .  S
C1243      C1244   1.398       .  A
C1243      H1248   1.084       .  S
C1244      C1249   1.485       .  S
C1244      C1245   1.408       .  A
C1245      C1246   1.410       .  A
C1245      N1250   1.438       .  S
C1246      H1251   1.076       .  S
N1247      H1267   1.045   1_545  S
N1247      H1268   1.046       .  S
C1249      C1252   1.398       .  A
C1249      C1256   1.405       .  A
N1250      H1265   1.045       .  S
N1250      H1266   1.046       .  S
C1252      C1253   1.410       .  A
C1252      H1257   1.084       .  S
C1253      C1254   1.426       .  A
C1253      N1258   1.439       .  S
C1254      C1255   1.414       .  A
C1255      C1256   1.405       .  A
C1255      H1259   1.074       .  S
C1256      N1260   1.439       .  S
N1258      H1261   1.046       .  S
N1258      H1262   1.044       .  S
N1260      H1263   1.045       .  S
N1260      H1264   1.046       .  S
C1269      C1270   1.412       .  A
C1269      C1274   1.404       .  A
C1270      C1271   1.403       .  A
C1270      N1275   1.438       .  S
C1271      C1272   1.400       .  A
C1271      H1276   1.084       .  S
C1272      C1277   1.480       .  S
C1272      C1273   1.411       .  A
C1273      C1274   1.410       .  A
C1273      N1278   1.438       .  S
C1274      H1279   1.084       .  S
N1275      H1295   1.046       .  S
N1275      H1296   1.046       .  S
C1277      C1280   1.403       .  A
C1277      C1284   1.407       .  A
N1278      H1293   1.045       .  S
N1278      H1294   1.044       .  S
C1280      C1281   1.411       .  A
C1280      H1285   1.083       .  S
C1281      C1282   1.415       .  A
C1281      N1286   1.437       .  S
C1282      C1283   1.408       .  A
C1283      C1284   1.402       .  A
C1283      H1287   1.083       .  S
C1284      N1288   1.439       .  S
N1286      H1289   1.045       .  S
N1286      H1290   1.046       .  S
N1288      H1291   1.046       .  S
N1288      H1292   1.044       .  S
C1297      C1298   1.409       .  A
C1297      C1302   1.405       .  A
C1298      C1299   1.409       .  A
C1298      N1303   1.437       .  S
C1299      C1300   1.404   1_554  A
C1299      H1304   1.084       .  S
C1300      C1305   1.482       .  S
C1300      C1301   1.408       .  A
C1301      C1302   1.406   1_556  A
C1301      N1306   1.438       .  S
C1302      H1307   1.084       .  S
N1303      H1323   1.046       .  S
N1303      H1324   1.045       .  S
C1305      C1308   1.401       .  A
C1305      C1312   1.408       .  A
N1306      H1321   1.045       .  S
N1306      H1322   1.045       .  S
C1308      C1309   1.408       .  A
C1308      H1313   1.084       .  S
C1309      C1310   1.413       .  A
C1309      N1314   1.437       .  S
C1310      C1311   1.406       .  A
C1311      C1312   1.406       .  A
C1311      H1315   1.084       .  S
C1312      N1316   1.438       .  S
N1314      H1317   1.045       .  S
N1314      H1318   1.045       .  S
N1316      H1319   1.046       .  S
N1316      H1320   1.045       .  S
C1325      C1326   1.411       .  A
C1325      C1330   1.405       .  A
C1326      C1327   1.406       .  A
C1326      N1331   1.437       .  S
C1327      C1328   1.401       .  A
C1327      H1332   1.084       .  S
C1328      C1333   1.482       .  S
C1328      C1329   1.410       .  A
C1329      C1330   1.409       .  A
C1329      N1334   1.438       .  S
C1330      H1335   1.084       .  S
N1331      H1351   1.046       .  S
N1331      H1352   1.045       .  S
C1333      C1336   1.401       .  A
C1333      C1340   1.408       .  A
N1334      H1349   1.045       .  S
N1334      H1350   1.045       .  S
C1336      C1337   1.408       .  A
C1336      H1341   1.084       .  S
C1337      C1338   1.417       .  A
C1337      N1342   1.438       .  S
C1338      C1339   1.406       .  A
C1339      C1340   1.407       .  A
C1339      H1343   1.083   1_565  S
C1340      N1344   1.438       .  S
N1342      H1345   1.046       .  S
N1342      H1346   1.045       .  S
N1344      H1347   1.046       .  S
N1344      H1348   1.045       .  S
C1353      C1354   1.419       .  A
C1353      C1358   1.414   1_545  A
C1354      C1355   1.407       .  A
C1354      N1359   1.433       .  S
C1355      C1356   1.403       .  A
C1355      H1360   1.084       .  S
C1356      C1361   1.499       .  S
C1356      C1357   1.411       .  A
C1357      C1358   1.412   1_545  A
C1357      N1362   1.438   1_545  S
C1358      H1363   1.075       .  S
N1359      H1379   1.046       .  S
N1359      H1380   1.045       .  S
C1361      C1364   1.405       .  A
C1361      C1368   1.409       .  A
N1362      H1377   1.045       .  S
N1362      H1378   1.046       .  S
C1364      C1365   1.411       .  A
C1364      H1369   1.084       .  S
C1365      C1366   1.419       .  A
C1365      N1370   1.433       .  S
C1366      C1367   1.414       .  A
C1367      C1368   1.407       .  A
C1367      H1371   1.074       .  S
C1368      N1372   1.439       .  S
N1370      H1373   1.045       .  S
N1370      H1374   1.046       .  S
N1372      H1375   1.045   1_545  S
N1372      H1376   1.046   1_545  S
C1381      C1382   1.403       .  A
C1381      C1386   1.399       .  A
C1382      C1383   1.405       .  A
C1382      N1387   1.432       .  S
C1383      C1384   1.409       .  A
C1383      H1388   1.083       .  S
C1384      C1389   1.499       .  S
C1384      C1385   1.417       .  A
C1385      C1386   1.407       .  A
C1385      N1390   1.438       .  S
C1386      H1391   1.082       .  S
N1387      H1407   1.046       .  S
N1387      H1408   1.043       .  S
C1389      C1392   1.407       .  A
C1389      C1396   1.415       .  A
N1390      H1405   1.046       .  S
N1390      H1406   1.045       .  S
C1392      C1393   1.404       .  A
C1392      H1397   1.083       .  S
C1393      C1394   1.410       .  A
C1393      N1398   1.432       .  S
C1394      C1395   1.406       .  A
C1395      C1396   1.408       .  A
C1395      H1399   1.083       .  S
C1396      N1400   1.438       .  S
N1398      H1401   1.045       .  S
N1398      H1402   1.046       .  S
N1400      H1403   1.046       .  S
N1400      H1404   1.045       .  S
C1409      C1410   1.413       .  A
C1409      C1414   1.406       .  A
C1410      C1411   1.410       .  A
C1410      N1415   1.437       .  S
C1411      C1412   1.403       .  A
C1411      H1416   1.084       .  S
C1412      C1417   1.484   1_556  S
C1412      C1413   1.407   1_556  A
C1413      C1414   1.405   1_554  A
C1413      N1418   1.438       .  S
C1414      H1419   1.083       .  S
N1415      H1435   1.046       .  S
N1415      H1436   1.046       .  S
C1417      C1420   1.403       .  A
C1417      C1424   1.408       .  A
N1418      H1433   1.045       .  S
N1418      H1434   1.046       .  S
C1420      C1421   1.408       .  A
C1420      H1425   1.084       .  S
C1421      C1422   1.411       .  A
C1421      N1426   1.437       .  S
C1422      C1423   1.403       .  A
C1423      C1424   1.407       .  A
C1423      H1427   1.079   1_565  S
C1424      N1428   1.438       .  S
N1426      H1429   1.046       .  S
N1426      H1430   1.046       .  S
N1428      H1431   1.046   1_565  S
N1428      H1432   1.045       .  S
C1437      C1438   1.414       .  A
C1437      C1442   1.407       .  A
C1438      C1439   1.403       .  A
C1438      N1443   1.438       .  S
C1439      C1440   1.401       .  A
C1439      H1444   1.084       .  S
C1440      C1445   1.484       .  S
C1440      C1441   1.410       .  A
C1441      C1442   1.411       .  A
C1441      N1446   1.437       .  S
C1442      H1447   1.083       .  S
N1443      H1463   1.046       .  S
N1443      H1464   1.045       .  S
C1445      C1448   1.403       .  A
C1445      C1452   1.408       .  A
N1446      H1461   1.045       .  S
N1446      H1462   1.046       .  S
C1448      C1449   1.412       .  A
C1448      H1453   1.083       .  S
C1449      C1450   1.416       .  A
C1449      N1454   1.437       .  S
C1450      C1451   1.406       .  A
C1451      C1452   1.400       .  A
C1451      H1455   1.083       .  S
C1452      N1456   1.439       .  S
N1454      H1457   1.046       .  S
N1454      H1458   1.046       .  S
N1456      H1459   1.046       .  S
N1456      H1460   1.046       .  S
C1465      C1466   1.418       .  A
C1465      C1470   1.409       .  A
C1466      C1467   1.405       .  A
C1466      N1471   1.438       .  S
C1467      C1468   1.399       .  A
C1467      H1472   1.084       .  S
C1468      C1473   1.484       .  S
C1468      C1469   1.409       .  A
C1469      C1470   1.412       .  A
C1469      N1474   1.438       .  S
C1470      H1475   1.083       .  S
N1471      H1491   1.046       .  S
N1471      H1492   1.046       .  S
C1473      C1476   1.402       .  A
C1473      C1480   1.409       .  A
N1474      H1489   1.046       .  S
N1474      H1490   1.044       .  S
C1476      C1477   1.410       .  A
C1476      H1481   1.084       .  S
C1477      C1478   1.416       .  A
C1477      N1482   1.437       .  S
C1478      C1479   1.405       .  A
C1479      C1480   1.406       .  A
C1479      H1483   1.083       .  S
C1480      N1484   1.438       .  S
N1482      H1485   1.046       .  S
N1482      H1486   1.045       .  S
N1484      H1487   1.045       .  S
N1484      H1488   1.045       .  S
C1493      C1494   1.416       .  A
C1493      C1498   1.406       .  A
C1494      C1495   1.405       .  A
C1494      N1499   1.438       .  S
C1495      C1496   1.401       .  A
C1495      H1500   1.084       .  S
C1496      C1501   1.479       .  S
C1496      C1497   1.408       .  A
C1497      C1498   1.402       .  A
C1497      N1502   1.438       .  S
C1498      H1503   1.083       .  S
N1499      H1519   1.045       .  S
N1499      H1520   1.046       .  S
C1501      C1504   1.401       .  A
C1501      C1508   1.408       .  A
N1502      H1517   1.045       .  S
N1502      H1518   1.046       .  S
C1504      C1505   1.403       .  A
C1504      H1509   1.084       .  S
C1505      C1506   1.415       .  A
C1505      N1510   1.438       .  S
C1506      C1507   1.406       .  A
C1507      C1508   1.404       .  A
C1507      H1511   1.083       .  S
C1508      N1512   1.438       .  S
N1510      H1513   1.046       .  S
N1510      H1514   1.046       .  S
N1512      H1515   1.046       .  S
N1512      H1516   1.046       .  S
C1521      C1522   1.417       .  A
C1521      C1526   1.407       .  A
C1522      C1523   1.406       .  A
C1522      N1527   1.438       .  S
C1523      C1524   1.400       .  A
C1523      H1528   1.084       .  S
C1524      C1529   1.481       .  S
C1524      C1525   1.408       .  A
C1525      C1526   1.405       .  A
C1525      N1530   1.438       .  S
C1526      H1531   1.083       .  S
N1527      H1547   1.046       .  S
N1527      H1548   1.046       .  S
C1529      C1532   1.401       .  A
C1529      C1536   1.407       .  A
N1530      H1545   1.046       .  S
N1530      H1546   1.046       .  S
C1532      C1533   1.410       .  A
C1532      H1537   1.084       .  S
C1533      C1534   1.416       .  A
C1533      N1538   1.437       .  S
C1534      C1535   1.408       .  A
C1535      C1536   1.403       .  A
C1535      H1539   1.083       .  S
C1536      N1540   1.439       .  S
N1538      H1541   1.045       .  S
N1538      H1542   1.046       .  S
N1540      H1543   1.046       .  S
N1540      H1544   1.046       .  S
C1549      C1550   1.416       .  A
C1549      C1554   1.408       .  A
C1550      C1551   1.405       .  A
C1550      N1555   1.438       .  S
C1551      C1552   1.400       .  A
C1551      H1556   1.084       .  S
C1552      C1557   1.478       .  S
C1552      C1553   1.406       .  A
C1553      C1554   1.406       .  A
C1553      N1558   1.438       .  S
C1554      H1559   1.083       .  S
N1555      H1575   1.046       .  S
N1555      H1576   1.046       .  S
C1557      C1560   1.399       .  A
C1557      C1564   1.407       .  A
N1558      H1573   1.046       .  S
N1558      H1574   1.045       .  S
C1560      C1561   1.407       .  A
C1560      H1565   1.084       .  S
C1561      C1562   1.415       .  A
C1561      N1566   1.430   1_565  S
C1562      C1563   1.408       .  A
C1563      C1564   1.404       .  A
C1563      H1567   1.083       .  S
C1564      N1568   1.438       .  S
N1566      H1569   1.045       .  S
N1566      H1570   1.045       .  S
N1568      H1571   1.046       .  S
N1568      H1572   1.045       .  S
C1577      C1578   1.416       .  A
C1577      C1582   1.408       .  A
C1578      C1579   1.400       .  A
C1578      N1583   1.438       .  S
C1579      C1580   1.399       .  A
C1579      H1584   1.084       .  S
C1580      C1585   1.479       .  S
C1580      C1581   1.408       .  A
C1581      C1582   1.410       .  A
C1581      N1586   1.437       .  S
C1582      H1587   1.083       .  S
N1583      H1603   1.045       .  S
N1583      H1604   1.046       .  S
C1585      C1588   1.402       .  A
C1585      C1592   1.406       .  A
N1586      H1601   1.045       .  S
N1586      H1602   1.046       .  S
C1588      C1589   1.410       .  A
C1588      H1593   1.084       .  S
C1589      C1590   1.417       .  A
C1589      N1594   1.437       .  S
C1590      C1591   1.405       .  A
C1591      C1592   1.400       .  A
C1591      H1595   1.083       .  S
C1592      N1596   1.438       .  S
N1594      H1597   1.046       .  S
N1594      H1598   1.045       .  S
N1596      H1599   1.045       .  S
N1596      H1600   1.045       .  S
C1605      C1606   1.415       .  A
C1605      C1610   1.405       .  A
C1606      C1607   1.405       .  A
C1606      N1611   1.438       .  S
C1607      C1608   1.401       .  A
C1607      H1612   1.084       .  S
C1608      C1613   1.480       .  S
C1608      C1609   1.408       .  A
C1609      C1610   1.404       .  A
C1609      N1614   1.438       .  S
C1610      H1615   1.083       .  S
N1611      H1631   1.046       .  S
N1611      H1632   1.046       .  S
C1613      C1616   1.401       .  A
C1613      C1620   1.408       .  A
N1614      H1629   1.046       .  S
N1614      H1630   1.046       .  S
C1616      C1617   1.407       .  A
C1616      H1621   1.084       .  S
C1617      C1618   1.416       .  A
C1617      N1622   1.437       .  S
C1618      C1619   1.407       .  A
C1619      C1620   1.403       .  A
C1619      H1623   1.083       .  S
C1620      N1624   1.438       .  S
N1622      H1625   1.046       .  S
N1622      H1626   1.045       .  S
N1624      H1627   1.046       .  S
N1624      H1628   1.046       .  S
C1633      C1634   1.416       .  A
C1633      C1638   1.406       .  A
C1634      C1635   1.401       .  A
C1634      N1639   1.438       .  S
C1635      C1636   1.399       .  A
C1635      H1640   1.084       .  S
C1636      C1641   1.474       .  S
C1636      C1637   1.407       .  A
C1637      C1638   1.404       .  A
C1637      N1642   1.438       .  S
C1638      H1643   1.083       .  S
N1639      H1659   1.046       .  S
N1639      H1660   1.046       .  S
C1641      C1644   1.400       .  A
C1641      C1648   1.406       .  A
N1642      H1657   1.045       .  S
N1642      H1658   1.046       .  S
C1644      C1645   1.405       .  A
C1644      H1649   1.084       .  S
C1645      C1646   1.416       .  A
C1645      N1650   1.438       .  S
C1646      C1647   1.405       .  A
C1647      C1648   1.399       .  A
C1647      H1651   1.083       .  S
C1648      N1652   1.438       .  S
N1650      H1653   1.046       .  S
N1650      H1654   1.045       .  S
N1652      H1655   1.046       .  S
N1652      H1656   1.045       .  S
C1661      C1662   1.416       .  A
C1661      C1666   1.407       .  A
C1662      C1663   1.409       .  A
C1662      N1667   1.437       .  S
C1663      C1664   1.402       .  A
C1663      H1668   1.084       .  S
C1664      C1669   1.483       .  S
C1664      C1665   1.409       .  A
C1665      C1666   1.401       .  A
C1665      N1670   1.439       .  S
C1666      H1671   1.083       .  S
N1667      H1687   1.045       .  S
N1667      H1688   1.046       .  S
C1669      C1672   1.400       .  A
C1669      C1676   1.411       .  A
N1670      H1685   1.046       .  S
N1670      H1686   1.045       .  S
C1672      C1673   1.401       .  A
C1672      H1677   1.084       .  S
C1673      C1674   1.414       .  A
C1673      N1678   1.438       .  S
C1674      C1675   1.406       .  A
C1675      C1676   1.410       .  A
C1675      H1679   1.083       .  S
C1676      N1680   1.437       .  S
N1678      H1681   1.046       .  S
N1678      H1682   1.046       .  S
N1680      H1683   1.046       .  S
N1680      H1684   1.046       .  S
C1689      C1690   1.414       .  A
C1689      C1694   1.405       .  A
C1690      C1691   1.410       .  A
C1690      N1695   1.437       .  S
C1691      C1692   1.405       .  A
C1691      H1696   1.083       .  S
C1692      C1697   1.491       .  S
C1692      C1693   1.413       .  A
C1693      C1694   1.404       .  A
C1693      N1698   1.439       .  S
C1694      H1699   1.083       .  S
N1695      H1715   1.045       .  S
N1695      H1716   1.046       .  S
C1697      C1700   1.406       .  A
C1697      C1704   1.411       .  A
N1698      H1713   1.045       .  S
N1698      H1714   1.046       .  S
C1700      C1701   1.409       .  A
C1700      H1705   1.084       .  S
C1701      C1702   1.415       .  A
C1701      N1706   1.438       .  S
C1702      C1703   1.406       .  A
C1703      C1704   1.403       .  A
C1703      H1707   1.084       .  S
C1704      N1708   1.438       .  S
N1706      H1709   1.046       .  S
N1706      H1710   1.046       .  S
N1708      H1711   1.046       .  S
N1708      H1712   1.045       .  S
C1717      C1718   1.420       .  A
C1717      C1722   1.415       .  A
C1718      C1719   1.411       .  A
C1718      N1723   1.432       .  S
C1719      C1720   1.402       .  A
C1719      H1724   1.084       .  S
C1720      C1725   1.493       .  S
C1720      C1721   1.408       .  A
C1721      C1722   1.406       .  A
C1721      N1726   1.439       .  S
C1722      H1727   1.072       .  S
N1723      H1743   1.045       .  S
N1723      H1744   1.046       .  S
C1725      C1728   1.397       .  A
C1725      C1732   1.407       .  A
N1726      H1741   1.046       .  S
N1726      H1742   1.045       .  S
C1728      C1729   1.401       .  A
C1728      H1733   1.084       .  S
C1729      C1730   1.436       .  A
C1729      N1734   1.441       .  S
C1730      C1731   1.416       .  A
C1731      C1732   1.413       .  A
C1731      H1735   1.076       .  S
C1732      N1736   1.438       .  S
N1734      H1737   1.045       .  S
N1734      H1738   1.038       .  S
N1736      H1739   1.045       .  S
N1736      H1740   1.046       .  S
C1745      C1746   1.412       .  A
C1745      C1750   1.409       .  A
C1746      C1747   1.406       .  A
C1746      N1751   1.427       .  S
C1747      C1748   1.402       .  A
C1747      H1752   1.084       .  S
C1748      C1753   1.491       .  S
C1748      C1749   1.412       .  A
C1749      C1750   1.406       .  A
C1749      N1754   1.438       .  S
C1750      H1755   1.083       .  S
N1751      H1771   1.046       .  S
N1751      H1772   1.045       .  S
C1753      C1756   1.403       .  A
C1753      C1760   1.412       .  A
N1754      H1769   1.046       .  S
N1754      H1770   1.045       .  S
C1756      C1757   1.408       .  A
C1756      H1761   1.084       .  S
C1757      C1758   1.418       .  A
C1757      N1762   1.437       .  S
C1758      C1759   1.407       .  A
C1759      C1760   1.406       .  A
C1759      H1763   1.083       .  S
C1760      N1764   1.439       .  S
N1762      H1765   1.046       .  S
N1762      H1766   1.046       .  S
N1764      H1767   1.046       .  S
N1764      H1768   1.045       .  S
C1773      C1774   1.424       .  A
C1773      C1778   1.414       .  A
C1774      C1775   1.414       .  A
C1774      N1779   1.438       .  S
C1775      C1776   1.402       .  A
C1775      H1780   1.083       .  S
C1776      C1781   1.487       .  S
C1776      C1777   1.404       .  A
C1777      C1778   1.402       .  A
C1777      N1782   1.439       .  S
C1778      H1783   1.074       .  S
N1779      H1799   1.045       .  S
N1779      H1800   1.046       .  S
C1781      C1784   1.397       .  A
C1781      C1788   1.406       .  A
N1782      H1797   1.045       .  S
N1782      H1798   1.045       .  S
C1784      C1785   1.398       .  A
C1784      H1789   1.084       .  S
C1785      C1786   1.432       .  A
C1785      N1790   1.436       .  S
C1786      C1787   1.417       .  A
C1787      C1788   1.411       .  A
C1787      H1791   1.075       .  S
C1788      N1792   1.438       .  S
N1790      H1793   1.038       .  S
N1790      H1794   1.045       .  S
N1792      H1795   1.046       .  S
N1792      H1796   1.046       .  S
C1801      C1802   1.412       .  A
C1801      C1806   1.401       .  A
C1802      C1803   1.401       .  A
C1802      N1807   1.439       .  S
C1803      C1804   1.403       .  A
C1803      H1808   1.083       .  S
C1804      C1809   1.493       .  S
C1804      C1805   1.416       .  A
C1805      C1806   1.410       .  A
C1805      N1810   1.437       .  S
C1806      H1811   1.084       .  S
N1807      H1827   1.046       .  S
N1807      H1828   1.045       .  S
C1809      C1812   1.402       .  A
C1809      C1816   1.415       .  A
N1810      H1825   1.046       .  S
N1810      H1826   1.045       .  S
C1812      C1813   1.401       .  A
C1812      H1817   1.083       .  S
C1813      C1814   1.414       .  A
C1813      N1818   1.433       .  S
C1814      C1815   1.406       .  A
C1815      C1816   1.410       .  A
C1815      H1819   1.083       .  S
C1816      N1820   1.438       .  S
N1818      H1821   1.046       .  S
N1818      H1822   1.046       .  S
N1820      H1823   1.046       .  S
N1820      H1824   1.045       .  S
C1829      C1830   1.411       .  A
C1829      C1834   1.400       .  A
C1830      C1831   1.408       .  A
C1830      N1835   1.437       .  S
C1831      C1832   1.402       .  A
C1831      H1836   1.084   1_556  S
C1832      C1837   1.482   1_556  S
C1832      C1833   1.409       .  A
C1833      C1834   1.406       .  A
C1833      N1838   1.438       .  S
C1834      H1839   1.076       .  S
N1835      H1855   1.045       .  S
N1835      H1856   1.045   1_556  S
C1837      C1840   1.401       .  A
C1837      C1844   1.409       .  A
N1838      H1853   1.046       .  S
N1838      H1854   1.044       .  S
C1840      C1841   1.408       .  A
C1840      H1845   1.084   1_554  S
C1841      C1842   1.413       .  A
C1841      N1846   1.437       .  S
C1842      C1843   1.404       .  A
C1843      C1844   1.407       .  A
C1843      H1847   1.084       .  S
C1844      N1848   1.438       .  S
N1846      H1849   1.046       .  S
N1846      H1850   1.045       .  S
N1848      H1851   1.045       .  S
N1848      H1852   1.045   1_554  S
C1857      C1858   1.422       .  A
C1857      C1862   1.414       .  A
C1858      C1859   1.410       .  A
C1858      N1863   1.438       .  S
C1859      C1860   1.402       .  A
C1859      H1864   1.084       .  S
C1860      C1865   1.493       .  S
C1860      C1861   1.408       .  A
C1861      C1862   1.406       .  A
C1861      N1866   1.439       .  S
C1862      H1867   1.077       .  S
N1863      H1883   1.044       .  S
N1863      H1884   1.046       .  S
C1865      C1868   1.402       .  A
C1865      C1872   1.409       .  A
N1866      H1881   1.046       .  S
N1866      H1882   1.045       .  S
C1868      C1869   1.407       .  A
C1868      H1873   1.084       .  S
C1869      C1870   1.421       .  A
C1869      N1874   1.433       .  S
C1870      C1871   1.412       .  A
C1871      C1872   1.407       .  A
C1871      H1875   1.075       .  S
C1872      N1876   1.439       .  S
N1874      H1877   1.046       .  S
N1874      H1878   1.045       .  S
N1876      H1879   1.045       .  S
N1876      H1880   1.046       .  S
C1885      C1886   1.413       .  A
C1885      C1890   1.402       .  A
C1886      C1887   1.408       .  A
C1886      N1891   1.438       .  S
C1887      C1888   1.402       .  A
C1887      H1892   1.084       .  S
C1888      C1893   1.479       .  S
C1888      C1889   1.408       .  A
C1889      C1890   1.404       .  A
C1889      N1894   1.438       .  S
C1890      H1895   1.083       .  S
N1891      H1911   1.046       .  S
N1891      H1912   1.046       .  S
C1893      C1896   1.402       .  A
C1893      C1900   1.407       .  A
N1894      H1909   1.045       .  S
N1894      H1910   1.045       .  S
C1896      C1897   1.408       .  A
C1896      H1901   1.084       .  S
C1897      C1898   1.412       .  A
C1897      N1902   1.437       .  S
C1898      C1899   1.406       .  A
C1899      C1900   1.403       .  A
C1899      H1903   1.083       .  S
C1900      N1904   1.438       .  S
N1902      H1905   1.045       .  S
N1902      H1906   1.045       .  S
N1904      H1907   1.046       .  S
N1904      H1908   1.045       .  S
C1913      C1914   1.423       .  A
C1913      C1918   1.414       .  A
C1914      C1915   1.416       .  A
C1914      N1919   1.438       .  S
C1915      C1916   1.406       .  A
C1915      H1920   1.083       .  S
C1916      C1921   1.502       .  S
C1916      C1917   1.410       .  A
C1917      C1918   1.406       .  A
C1917      N1922   1.439       .  S
C1918      H1923   1.075       .  S
N1919      H1939   1.045       .  S
N1919      H1940   1.046       .  S
C1921      C1924   1.405       .  A
C1921      C1928   1.411       .  A
N1922      H1937   1.045       .  S
N1922      H1938   1.046       .  S
C1924      C1925   1.407       .  A
C1924      H1929   1.084       .  S
C1925      C1926   1.418       .  A
C1925      N1930   1.433       .  S
C1926      C1927   1.416       .  A
C1927      C1928   1.411       .  A
C1927      H1931   1.074       .  S
C1928      N1932   1.439       .  S
N1930      H1933   1.045       .  S
N1930      H1934   1.046       .  S
N1932      H1935   1.046       .  S
N1932      H1936   1.045       .  S
C1941      C1942   1.412       .  A
C1941      C1946   1.404       .  A
C1942      C1943   1.407       .  A
C1942      N1947   1.437       .  S
C1943      C1944   1.401       .  A
C1943      H1948   1.084       .  S
C1944      C1949   1.486       .  S
C1944      C1945   1.411       .  A
C1945      C1946   1.411       .  A
C1945      N1950   1.437       .  S
C1946      H1951   1.083       .  S
N1947      H1967   1.046       .  S
N1947      H1968   1.045       .  S
C1949      C1952   1.398       .  A
C1949      C1956   1.408       .  A
N1950      H1965   1.046       .  S
N1950      H1966   1.045       .  S
C1952      C1953   1.405       .  A
C1952      H1957   1.084       .  S
C1953      C1954   1.416       .  A
C1953      N1958   1.429       .  S
C1954      C1955   1.411       .  A
C1955      C1956   1.411       .  A
C1955      H1959   1.083       .  S
C1956      N1960   1.437       .  S
N1958      H1961   1.046       .  S
N1958      H1962   1.046       .  S
N1960      H1963   1.045       .  S
N1960      H1964   1.046       .  S
C1969      C1970   1.410       .  A
C1969      C1974   1.401       .  A
C1970      C1971   1.410       .  A
C1970      N1975   1.437       .  S
C1971      C1972   1.404   1_556  A
C1971      H1976   1.084       .  S
C1972      C1977   1.487       .  S
C1972      C1973   1.412       .  A
C1973      C1974   1.408   1_554  A
C1973      N1978   1.439       .  S
C1974      H1979   1.081       .  S
N1975      H1995   1.046       .  S
N1975      H1996   1.046       .  S
C1977      C1980   1.403       .  A
C1977      C1984   1.413       .  A
N1978      H1993   1.046       .  S
N1978      H1994   1.043       .  S
C1980      C1981   1.408       .  A
C1980      H1985   1.084   1_554  S
C1981      C1982   1.410       .  A
C1981      N1986   1.438       .  S
C1982      C1983   1.402       .  A
C1983      C1984   1.410       .  A
C1983      H1987   1.083       .  S
C1984      N1988   1.438       .  S
N1986      H1989   1.046       .  S
N1986      H1990   1.044       .  S
N1988      H1991   1.046       .  S
N1988      H1992   1.043       .  S
C1997      C1998   1.414       .  A
C1997      C2002   1.405       .  A
C1998      C1999   1.403       .  A
C1998      N2003   1.438       .  S
C1999      C2000   1.401       .  A
C1999      H2004   1.084       .  S
C2000      C2005   1.484       .  S
C2000      C2001   1.410       .  A
C2001      C2002   1.408       .  A
C2001      N2006   1.437       .  S
C2002      H2007   1.084       .  S
N2003      H2023   1.046       .  S
N2003      H2024   1.046       .  S
C2005      C2008   1.402       .  A
C2005      C2012   1.409       .  A
N2006      H2021   1.046       .  S
N2006      H2022   1.045       .  S
C2008      C2009   1.406       .  A
C2008      H2013   1.084       .  S
C2009      C2010   1.415       .  A
C2009      N2014   1.438       .  S
C2010      C2011   1.405       .  A
C2011      C2012   1.406       .  A
C2011      H2015   1.083       .  S
C2012      N2016   1.438       .  S
N2014      H2017   1.046       .  S
N2014      H2018   1.046       .  S
N2016      H2019   1.046       .  S
N2016      H2020   1.045       .  S
C2025      C2026   1.414       .  A
C2025      C2030   1.407       .  A
C2026      C2027   1.404       .  A
C2026      N2031   1.438       .  S
C2027      C2028   1.401       .  A
C2027      H2032   1.084       .  S
C2028      C2033   1.481       .  S
C2028      C2029   1.409       .  A
C2029      C2030   1.405       .  A
C2029      N2034   1.438       .  S
C2030      H2035   1.083       .  S
N2031      H2051   1.046       .  S
N2031      H2052   1.045       .  S
C2033      C2036   1.401       .  A
C2033      C2040   1.410       .  A
N2034      H2049   1.046       .  S
N2034      H2050   1.045       .  S
C2036      C2037   1.404       .  A
C2036      H2041   1.084       .  S
C2037      C2038   1.414       .  A
C2037      N2042   1.438       .  S
C2038      C2039   1.406       .  A
C2039      C2040   1.405       .  A
C2039      H2043   1.084       .  S
C2040      N2044   1.438       .  S
N2042      H2045   1.045       .  S
N2042      H2046   1.046       .  S
N2044      H2047   1.046       .  S
N2044      H2048   1.046       .  S
C2053      C2054   1.420       .  A
C2053      C2058   1.409       .  A
C2054      C2055   1.409       .  A
C2054      N2059   1.438       .  S
C2055      C2056   1.401       .  A
C2055      H2060   1.084       .  S
C2056      C2061   1.488       .  S
C2056      C2057   1.409       .  A
C2057      C2058   1.408       .  A
C2057      N2062   1.438       .  S
C2058      H2063   1.083       .  S
N2059      H2079   1.046       .  S
N2059      H2080   1.045       .  S
C2061      C2064   1.404       .  A
C2061      C2068   1.412       .  A
N2062      H2077   1.046       .  S
N2062      H2078   1.046       .  S
C2064      C2065   1.407       .  A
C2064      H2069   1.084       .  S
C2065      C2066   1.409       .  A
C2065      N2070   1.432       .  S
C2066      C2067   1.404       .  A
C2067      C2068   1.407       .  A
C2067      H2071   1.084       .  S
C2068      N2072   1.438       .  S
N2070      H2073   1.045       .  S
N2070      H2074   1.046       .  S
N2072      H2075   1.046       .  S
N2072      H2076   1.046       .  S
C2081      C2082   1.417       .  A
C2081      C2086   1.406       .  A
C2082      C2083   1.404       .  A
C2082      N2087   1.438       .  S
C2083      C2084   1.399       .  A
C2083      H2088   1.084       .  S
C2084      C2089   1.477       .  S
C2084      C2085   1.407       .  A
C2085      C2086   1.403       .  A
C2085      N2090   1.438       .  S
C2086      H2091   1.083       .  S
N2087      H2107   1.046       .  S
N2087      H2108   1.046       .  S
C2089      C2092   1.400       .  A
C2089      C2096   1.408       .  A
N2090      H2105   1.045       .  S
N2090      H2106   1.046       .  S
C2092      C2093   1.403       .  A
C2092      H2097   1.084       .  S
C2093      C2094   1.414       .  A
C2093      N2098   1.438       .  S
C2094      C2095   1.406       .  A
C2095      C2096   1.405       .  A
C2095      H2099   1.084       .  S
C2096      N2100   1.438       .  S
N2098      H2101   1.046       .  S
N2098      H2102   1.046       .  S
N2100      H2103   1.046       .  S
N2100      H2104   1.046       .  S
C2109      C2110   1.414       .  A
C2109      C2114   1.406       .  A
C2110      C2111   1.403       .  A
C2110      N2115   1.438       .  S
C2111      C2112   1.402       .  A
C2111      H2116   1.084       .  S
C2112      C2117   1.485       .  S
C2112      C2113   1.410       .  A
C2113      C2114   1.408       .  A
C2113      N2118   1.438       .  S
C2114      H2119   1.083       .  S
N2115      H2135   1.045       .  S
N2115      H2136   1.046       .  S
C2117      C2120   1.403       .  A
C2117      C2124   1.409       .  A
N2118      H2133   1.046       .  S
N2118      H2134   1.046       .  S
C2120      C2121   1.410       .  A
C2120      H2125   1.084       .  S
C2121      C2122   1.417       .  A
C2121      N2126   1.437       .  S
C2122      C2123   1.405       .  A
C2123      C2124   1.400       .  A
C2123      H2127   1.083       .  S
C2124      N2128   1.439       .  S
N2126      H2129   1.046       .  S
N2126      H2130   1.046       .  S
N2128      H2131   1.046       .  S
N2128      H2132   1.045       .  S
C2137      C2138   1.417       .  A
C2137      C2142   1.407       .  A
C2138      C2139   1.407       .  A
C2138      N2143   1.438       .  S
C2139      C2140   1.400       .  A
C2139      H2144   1.084       .  S
C2140      C2145   1.483       .  S
C2140      C2141   1.410       .  A
C2141      C2142   1.409       .  A
C2141      N2146   1.438       .  S
C2142      H2147   1.083       .  S
N2143      H2163   1.045       .  S
N2143      H2164   1.046       .  S
C2145      C2148   1.404       .  A
C2145      C2152   1.406       .  A
N2146      H2161   1.046       .  S
N2146      H2162   1.046       .  S
C2148      C2149   1.415       .  A
C2148      H2153   1.083       .  S
C2149      C2150   1.417       .  A
C2149      N2154   1.437       .  S
C2150      C2151   1.407       .  A
C2151      C2152   1.400       .  A
C2151      H2155   1.083       .  S
C2152      N2156   1.439       .  S
N2154      H2157   1.046       .  S
N2154      H2158   1.045       .  S
N2156      H2159   1.046       .  S
N2156      H2160   1.045       .  S
C2165      C2166   1.413       .  A
C2165      C2170   1.406       .  A
C2166      C2167   1.401       .  A
C2166      N2171   1.433       .  S
C2167      C2168   1.400       .  A
C2167      H2172   1.084       .  S
C2168      C2173   1.484       .  S
C2168      C2169   1.411       .  A
C2169      C2170   1.412       .  A
C2169      N2174   1.438       .  S
C2170      H2175   1.082       .  S
N2171      H2191   1.046       .  S
N2171      H2192   1.046       .  S
C2173      C2176   1.404       .  A
C2173      C2180   1.407       .  A
N2174      H2189   1.046       .  S
N2174      H2190   1.044       .  S
C2176      C2177   1.414       .  A
C2176      H2181   1.084       .  S
C2177      C2178   1.418       .  A
C2177      N2182   1.437       .  S
C2178      C2179   1.409       .  A
C2179      C2180   1.402       .  A
C2179      H2183   1.083       .  S
C2180      N2184   1.439       .  S
N2182      H2185   1.046       .  S
N2182      H2186   1.045       .  S
N2184      H2187   1.045       .  S
N2184      H2188   1.044       .  S
