geometry optimzed in LAMMPS
_audit_creation_date              2020-11-30 
_audit_creation_method            'lammps2cif' 
_symmetry_space_group_name_H-M    'P1' 
_symmetry_Int_Tables_number       1 
_symmetry_cell_setting            triclinic 
loop_ 
_symmetry_equiv_pos_as_xyz 
  x,y,z 
_cell_length_a                    35.08316605 
_cell_length_b                    35.61101119989609 
_cell_length_c                    35.45453960979195 
_cell_angle_alpha                 89.94780004383138 
_cell_angle_beta                  89.80678075965537 
_cell_angle_gamma                 89.68762785279566 
loop_ 
_atom_site_label 
_atom_site_type_symbol 
_atom_site_fract_x 
_atom_site_fract_y 
_atom_site_fract_z 
_atom_site_charge 
C1          C  0.42037278  0.41406120  0.42389246     0.43000
N2          N  0.46507756  0.45247873  0.43781794     0.01900
C3          C  0.57372529  0.45896527  0.60038257    -0.06000
H4          H  0.43098868  0.47197205  0.62464000     0.07400
C5          C  0.43101366  0.59349129  0.54630401    -0.06300
Co6        Co  0.50655094  0.43100976  0.50806816     0.74200
N7          N  0.46373148  0.46121300  0.57429917    -0.25500
Co8        Co  0.50323531  0.50436825  0.57212777     0.74100
C9          C  0.41278904  0.58103735  0.58138337     0.43100
N10         N  0.46044345  0.56324001  0.45660886     0.01500
N11         N  0.45993707  0.54441709  0.56820233     0.01600
N12         N  0.57480959  0.41132088  0.55833119    -0.46400
H13         H  0.43270913  0.37789792  0.47656643     0.07400
N14         N  0.46457633  0.43311608  0.55007336     0.01900
N15         N  0.54307560  0.54727973  0.56880923     0.01600
C16         C  0.58780260  0.58587960  0.58214258     0.43200
N17         N  0.46237281  0.53528467  0.43229096    -0.25000
C18         C  0.57581128  0.40453423  0.45959750    -0.05900
N19         N  0.43881926  0.44511697  0.41219891    -0.46100
N20         N  0.56957154  0.55478189  0.59411068    -0.46300
C21         C  0.59323242  0.41574356  0.42379878     0.43000
N22         N  0.54777466  0.43607432  0.55017828     0.01900
N23         N  0.54454952  0.53864812  0.43256001    -0.25000
N24         N  0.46551511  0.42784980  0.46563393    -0.25500
N25         N  0.54329703  0.56653948  0.45705160     0.01500
H26         H  0.57643598  0.52985739  0.38121746     0.07400
H27         H  0.57518935  0.62140954  0.52901806     0.07400
N28         N  0.54633236  0.46402290  0.57455375    -0.25500
N29         N  0.45957610  0.56904428  0.54044804    -0.25200
N30         N  0.54832121  0.45459920  0.43815011     0.01900
C31         C  0.42143733  0.41794226  0.59030979     0.43300
C32         C  0.43530076  0.53991872  0.40625266    -0.06400
N33         N  0.54241041  0.57177104  0.54090722    -0.25200
H34         H  0.42555453  0.61791591  0.52906210     0.07400
N35         N  0.43984184  0.40640027  0.55876933    -0.46400
H36         H  0.43099970  0.52199288  0.38207684     0.07400
C37         C  0.58551930  0.58318311  0.41675628     0.43100
C38         C  0.43834925  0.40224505  0.45925028    -0.05900
Co39       Co  0.50524953  0.49512889  0.43459158     0.73800
N40         N  0.43328832  0.58777461  0.44815153    -0.46100
C41         C  0.59292505  0.42405756  0.58937286     0.43400
N42         N  0.57433055  0.44679983  0.41203893    -0.46100
Co43       Co  0.50140231  0.56844033  0.49872684     0.73900
C44         C  0.56976136  0.59725828  0.54669943    -0.06400
C45         C  0.43709655  0.45440860  0.60047058    -0.06000
N46         N  0.54835485  0.43004462  0.46604470    -0.25500
N47         N  0.43278873  0.55078529  0.59341641    -0.46300
H48         H  0.57780373  0.47630262  0.62504667     0.07400
C49         C  0.57058069  0.54654517  0.40606157    -0.06400
Cl50       Cl  0.50419893  0.49972030  0.50336143    -0.49400
C51         C  0.41613914  0.57480212  0.41672219     0.43100
H52         H  0.58133851  0.38000635  0.47677075     0.07300
N53         N  0.56720075  0.59392239  0.44848984    -0.46100
C54         C  0.08413858  0.41530144  0.91630246     0.43000
N55         N  0.07219095  0.45320289  0.96193970     0.01900
C56         C  0.91121205  0.45696504  0.07587510    -0.06000
H57         H  0.88303275  0.47094791  0.93292991     0.07400
C58         C  0.96139797  0.59276190  0.93300148    -0.06300
Co59       Co  0.00256652  0.43121359  0.00524386     0.74200
N60         N  0.93413796  0.46096233  0.96528007    -0.25500
Co61       Co  0.93679211  0.50393318  0.00531730     0.74100
C62         C  0.92559228  0.58057287  0.91616794     0.43100
N63         N  0.05155678  0.56397084  0.96014342     0.01500
N64         N  0.93933992  0.54445908  0.96279406     0.01600
N65         N  0.95444238  0.40983117  0.07402310    -0.46400
H66         H  0.03146041  0.37936665  0.93082850     0.07400
N67         N  0.95936405  0.43337842  0.96524740     0.01900
N68         N  0.94067394  0.54708940  0.04500207     0.01600
C69         C  0.92532929  0.58947057  0.08528191     0.43200
N70         N  0.07688534  0.53649254  0.95995284    -0.25000
C71         C  0.05191169  0.40530413  0.07269616    -0.05900
N72         N  0.09705252  0.44586518  0.93472531    -0.46100
N73         N  0.91398831  0.55682378  0.06967550    -0.46300
C74         C  0.08766115  0.41686863  0.08983515     0.43000
N75         N  0.96121556  0.43515707  0.04750457     0.01900
N76         N  0.07876523  0.53812972  0.04225994    -0.25000
N77         N  0.04403924  0.42883781  0.96311647    -0.25500
N78         N  0.05398078  0.56617768  0.04216130     0.01500
H79         H  0.13024993  0.52759587  0.07383165     0.07400
H80         H  0.97776782  0.62513329  0.07031202     0.07400
N81         N  0.93612642  0.46288284  0.04767304    -0.25500
N82         N  0.96752412  0.56881350  0.96155288    -0.25200
N83         N  0.07395553  0.45453466  0.04449512     0.01900
C84         C  0.91972463  0.41810627  0.92189754     0.43300
C85         C  0.10103455  0.54210362  0.93103122    -0.06400
N86         N  0.96852050  0.57182219  0.04308104    -0.25200
H87         H  0.97885839  0.61681882  0.92627767     0.07400
N88         N  0.95165777  0.40711490  0.94005557    -0.46400
H89         H  0.12581621  0.52506569  0.92463462     0.07400
C90         C  0.09451602  0.58082548  0.08480715     0.43100
C91         C  0.04913077  0.40367240  0.93546532    -0.05900
Co92       Co  0.07633728  0.49548685  0.00220704     0.73800
N93         N  0.05722453  0.58882001  0.93306261    -0.46100
C94         C  0.92339877  0.42152415  0.09347936     0.43400
N95         N  0.09999425  0.44733968  0.07061413    -0.46100
Co96       Co  0.01052384  0.56834062  0.00187113     0.73900
C97         C  0.96126911  0.59972512  0.06741115    -0.06400
C98         C  0.90806090  0.45401998  0.93854640    -0.06000
N99         N  0.04575996  0.43017691  0.04508381    -0.25500
N100        N  0.91332105  0.55088829  0.93657035    -0.46300
H101        H  0.88643685  0.47421314  0.08172156     0.07400
C102        C  0.10522500  0.54468641  0.06860504    -0.06400
Cl103      Cl  0.00653660  0.49975463  0.00380322    -0.49400
C104        C  0.08758144  0.57678289  0.91304147     0.43100
H105        H  0.03426341  0.38130309  0.07899373     0.07300
N106        N  0.06283724  0.59277251  0.06669010    -0.46100
C107        C  0.75953577  0.25004876  0.75048137    -0.02000
C108        C  0.42337344  0.08547921  0.90992660     0.43000
N109        N  0.43857130  0.04576431  0.95322803     0.01900
C110        C  0.60372337  0.03999133  0.06118688    -0.06000
H111        H  0.62681708  0.02290843  0.91879674     0.07400
C112        C  0.55034583  0.90096389  0.92605167    -0.06300
Co113      Co  0.51007527  0.06679980  0.99388923     0.74200
N114        N  0.57688324  0.03460808  0.95239539    -0.25500
Co115      Co  0.57483743  0.99271769  0.99375055     0.74100
C116        C  0.58740214  0.91116914  0.91009073     0.43100
N117        N  0.45834685  0.93412656  0.95243808     0.01500
N118        N  0.57176028  0.95102340  0.95287947     0.01600
N119        N  0.56182094  0.08838330  0.06073934    -0.46400
H120        H  0.47748243  0.12032858  0.92085538     0.07400
N121        N  0.55200819  0.06252972  0.95237560     0.01900
N122        N  0.57095238  0.95069715  0.03488268     0.01600
C123        C  0.58519946  0.90992355  0.07728244     0.43200
N124        N  0.43346232  0.96207368  0.95249299    -0.25000
C125        C  0.46187050  0.09582630  0.06129831    -0.05900
N126        N  0.41188955  0.05423152  0.92824761    -0.46100
N127        N  0.59732102  0.94157251  0.06001046    -0.46300
C128        C  0.42487819  0.08698331  0.07821308     0.43000
N129        N  0.55301259  0.06287958  0.03496295     0.01900
N130        N  0.43258655  0.96109984  0.03468386    -0.25000
N131        N  0.46701748  0.06985847  0.95302574    -0.25500
N132        N  0.45731274  0.93298392  0.03469739     0.01500
H133        H  0.38084305  0.97153880  0.06605311     0.07400
H134        H  0.53166938  0.87508638  0.06443893     0.07400
N135        N  0.57734467  0.03450934  0.03454302    -0.25500
N136        N  0.54318764  0.92708648  0.95248195    -0.25200
N137        N  0.43865984  0.04591984  0.03544793     0.01900
C138        C  0.58997683  0.07550836  0.90647831     0.43300
C139        C  0.40866079  0.95657978  0.92427604    -0.06400
N140        N  0.54256550  0.92651108  0.03421328    -0.25200
H141        H  0.53331215  0.87626509  0.92090641     0.07400
N142        N  0.55906993  0.08768831  0.92582263    -0.46400
H143        H  0.38407249  0.97399358  0.91824305     0.07400
C144        C  0.41625455  0.91795676  0.07727417     0.43100
C145        C  0.46017380  0.09585846  0.92630362    -0.05900
Co146      Co  0.43509762  0.00373852  0.99410008     0.73800
N147        N  0.45160542  0.90903341  0.92586504    -0.46100
C148        C  0.59340595  0.07575806  0.07878082     0.43400
N149        N  0.41233285  0.05553452  0.06071079    -0.46100
Co150      Co  0.50015977  0.92963200  0.99348514     0.73900
C151        C  0.54904285  0.89971393  0.05996102    -0.06400
C152        C  0.60210242  0.04029696  0.92440705    -0.06000
N153        N  0.46757770  0.06947776  0.03498175    -0.25500
N154        N  0.59911748  0.94207641  0.92862984    -0.46300
H155        H  0.62802770  0.02190200  0.06627222     0.07400
C156        C  0.40573799  0.95425609  0.06080699    -0.06400
Cl157      Cl  0.50500663  0.99823590  0.99393538    -0.49400
C158        C  0.42109183  0.92148604  0.90643994     0.43100
H159        H  0.48081279  0.11896350  0.06635060     0.07300
N160        N  0.44846085  0.90651723  0.05955782    -0.46100
C161        C  0.25248417  0.74869992  0.75180496    -0.02000
C162        C  0.91748836  0.08327278  0.41685720     0.43000
N163        N  0.95707579  0.03938100  0.43091969     0.01900
C164        C  0.96101577  0.93088957  0.59320633    -0.06000
H165        H  0.97586647  0.06875181  0.61925940     0.07400
C166        C  0.10013811  0.06713152  0.53868537    -0.06300
Co167      Co  0.93432547  0.99828875  0.50121197     0.74200
N168        N  0.96605277  0.03847709  0.56755769    -0.25500
Co169      Co  0.00902972  0.99788452  0.56492252     0.74100
C170        C  0.08845336  0.08415103  0.57451123     0.43100
N171        N  0.06995806  0.03860085  0.44912234     0.01500
N172        N  0.05063442  0.03903314  0.56125594     0.01600
N173        N  0.91170322  0.93256600  0.55225544    -0.46400
H174        H  0.88066290  0.07099334  0.46928877     0.07400
N175        N  0.93765752  0.03871996  0.54322882     0.01900
N176        N  0.05196373  0.95704432  0.56134782     0.01600
C177        C  0.09311638  0.91433391  0.57534048     0.43200
N178        N  0.04192952  0.03843652  0.42441690    -0.25000
C179        C  0.90584409  0.93100390  0.45401139    -0.05900
N180        N  0.94914885  0.06504827  0.40499480    -0.46100
N181        N  0.06085082  0.93165075  0.58727817    -0.46300
C182        C  0.91635941  0.91337929  0.41818807     0.43000
N183        N  0.93813479  0.95743531  0.54322962     0.01900
N184        N  0.04162503  0.95686666  0.42552259    -0.25000
N185        N  0.93209091  0.03911565  0.45885988    -0.25500
N186        N  0.06999471  0.95691726  0.44989043     0.01500
H187        H  0.02902758  0.92234121  0.37730063     0.07400
H188        H  0.12909867  0.92764050  0.52254624     0.07400
N189        N  0.96692096  0.95730935  0.56708175    -0.25500
N190        N  0.07526188  0.03930233  0.53306622    -0.25200
N191        N  0.95635819  0.95724538  0.43105664     0.01900
C192        C  0.92214199  0.08054637  0.58391625     0.43300
C193        C  0.04940324  0.06409971  0.39764505    -0.06400
N194        N  0.07683376  0.95787662  0.53341087    -0.25200
H195        H  0.12392935  0.07371460  0.52042740     0.07400
N196        N  0.91039521  0.06286517  0.55244510    -0.46400
H197        H  0.03280564  0.06872054  0.37241880     0.07400
C198        C  0.08268219  0.91074083  0.41305849     0.43100
C199        C  0.90580140  0.06577534  0.45233235    -0.05900
Co200      Co  0.99914133  0.99799012  0.42718818     0.73800
N201        N  0.09712382  0.06264922  0.44027588    -0.46100
C202        C  0.92409513  0.91481602  0.58364506     0.43400
N203        N  0.94786005  0.93138325  0.40560562    -0.46100
Co204      Co  0.07363893  0.99825114  0.49124275     0.73900
C205        C  0.10395953  0.93204251  0.53976394    -0.06400
C206        C  0.95894966  0.06425491  0.59424487    -0.06000
N207        N  0.93197265  0.95769874  0.45941791    -0.25500
N208        N  0.05753866  0.06526416  0.58670198    -0.46300
H209        H  0.97949961  0.92531283  0.61691536     0.07400
C210        C  0.04716229  0.92872983  0.40102770    -0.06400
Cl211      Cl  0.00402104  0.99812181  0.49613361    -0.49400
C212        C  0.08625013  0.07992692  0.40819887     0.43100
H213        H  0.88146582  0.92618725  0.47205433     0.07300
N214        N  0.09533010  0.93002185  0.44325974    -0.46100
C215        C  0.75130731  0.74867156  0.25127347    -0.02000
C216        C  0.25862704  0.24988715  0.25243346    -0.02000
C217        C  0.75115112  0.24796937  0.24802148    -0.02000
C218        C  0.25841362  0.74877580  0.25177911    -0.02000
C219        C  0.24712539  0.24747735  0.74678663    -0.02000
C220        C  0.75930446  0.74508607  0.74681206    -0.02000
C221        C  0.19204099  0.21559922  0.65710559    -0.01500
C222        C  0.16654036  0.18897301  0.67156713     0.07100
C223        C  0.16346220  0.18460652  0.71059235    -0.07400
C224        C  0.18783329  0.20373377  0.73518584     0.04600
C225        C  0.21736542  0.22746559  0.72067638    -0.14700
C226        C  0.21590062  0.23528478  0.68144922    -0.08000
C227        C  0.14562308  0.16316259  0.64625921     0.05500
C228        C  0.16698310  0.13901055  0.62311480    -0.09100
C229        C  0.14919535  0.11361584  0.59896561     0.00500
C230        C  0.10896561  0.11185783  0.59788426     0.00400
C231        C  0.08757422  0.13575264  0.62148292    -0.12700
C232        C  0.10551091  0.16145453  0.64541669     0.00800
C233        C  0.17325036  0.08857308  0.57736705     0.40100
C234        C  0.08228438  0.18622030  0.66822177     0.36700
C235        C  0.19433561  0.22312721  0.61711691     0.36500
C236        C  0.18260581  0.19581748  0.77477000     0.37200
N237        N  0.19286937  0.06865447  0.56020875    -0.43600
N238        N  0.06368090  0.20611376  0.68647084    -0.44000
N239        N  0.17660367  0.18804527  0.80591792    -0.41400
N240        N  0.19627195  0.22895325  0.58505663    -0.42800
H241        H  0.23323681  0.25687012  0.66879305     0.13400
H242        H  0.14310214  0.16462745  0.72187468     0.09800
H243        H  0.19787502  0.13970442  0.62434848     0.10900
H244        H  0.05669732  0.13444452  0.62108332     0.16700
C245        C  0.11927238  0.15242657  0.33728540    -0.01500
C246        C  0.15914540  0.14721141  0.33777686     0.07100
C247        C  0.17499644  0.11964143  0.36120719    -0.07400
C248        C  0.15191217  0.09743927  0.38427760     0.04600
C249        C  0.11186381  0.10274646  0.38418557    -0.14700
C250        C  0.09596238  0.13003034  0.36020511    -0.08000
C251        C  0.18527198  0.17178719  0.31618066     0.05500
C252        C  0.21010617  0.19474011  0.33622953    -0.09100
C253        C  0.23558069  0.21872840  0.31785211     0.00500
C254        C  0.23505673  0.22190303  0.27748711     0.00400
C255        C  0.21173357  0.19593784  0.25789590    -0.12700
C256        C  0.18709909  0.17143496  0.27666337     0.00800
C257        C  0.26293330  0.23626584  0.34241730     0.40100
C258        C  0.16443191  0.14575298  0.25477698     0.36700
C259        C  0.10186853  0.18137391  0.31446015     0.36500
C260        C  0.17030400  0.06875509  0.40670075     0.37200
N261        N  0.28455608  0.24921200  0.36322725    -0.43600
N262        N  0.14631429  0.12508929  0.23727648    -0.44000
N263        N  0.18525171  0.04578796  0.42451899    -0.41400
N264        N  0.08810305  0.20457647  0.29603763    -0.42800
H265        H  0.06537178  0.13440262  0.35994620     0.13400
H266        H  0.20566752  0.11557416  0.36151744     0.09800
H267        H  0.20996519  0.19335121  0.36680035     0.10900
H268        H  0.21174847  0.19580404  0.22734626     0.16700
C269        C  0.78915679  0.82102273  0.67488891    -0.01500
C270        C  0.82854101  0.81535800  0.67074925     0.07100
C271        C  0.84589200  0.78497460  0.68877484    -0.07400
C272        C  0.82505602  0.76074106  0.71196833     0.04600
C273        C  0.78565810  0.76843956  0.71990955    -0.14700
C274        C  0.76819466  0.79706296  0.69807595    -0.08000
C275        C  0.85244683  0.84084622  0.64793342     0.05500
C276        C  0.87789076  0.86441410  0.66667342    -0.09100
C277        C  0.90143557  0.88888718  0.64658501     0.00500
C278        C  0.90014892  0.88944895  0.60664646     0.00400
C279        C  0.87427844  0.86596814  0.58799024    -0.12700
C280        C  0.85061769  0.84163412  0.60826243     0.00800
C281        C  0.92478403  0.91428182  0.66809141     0.40100
C282        C  0.82522684  0.81723854  0.58788034     0.36700
C283        C  0.76995309  0.85209253  0.65674965     0.36500
C284        C  0.84478634  0.72677488  0.72293895     0.37200
N285        N  0.94323530  0.93456927  0.68571389    -0.43600
N286        N  0.80479935  0.79766990  0.57165326    -0.44000
N287        N  0.86116059  0.69956298  0.73076291    -0.41400
N288        N  0.75460782  0.87706493  0.64229277    -0.42800
H289        H  0.73760493  0.80210027  0.70064449     0.13400
H290        H  0.87612962  0.77958268  0.68376168     0.09800
H291        H  0.87889160  0.86403465  0.69730445     0.10900
H292        H  0.87283055  0.86633179  0.55740054     0.16700
C293        C  0.16631906  0.77594803  0.30840705    -0.01500
C294        C  0.17777505  0.80813288  0.32798657     0.07100
C295        C  0.21581164  0.81911435  0.32607765    -0.07400
C296        C  0.24204590  0.80039857  0.30280699     0.04600
C297        C  0.23022472  0.76996054  0.27933034    -0.14700
C298        C  0.19248801  0.75670293  0.28549159    -0.08000
C299        C  0.15069858  0.83161422  0.35002364     0.05500
C300        C  0.15509564  0.83417320  0.38922537    -0.09100
C301        C  0.13262765  0.85899791  0.41054383     0.00500
C302        C  0.10518500  0.88196008  0.39244410     0.00400
C303        C  0.10025897  0.87857779  0.35328555    -0.12700
C304        C  0.12281569  0.85387929  0.33204585     0.00800
C305        C  0.13818326  0.85987126  0.45087399     0.40100
C306        C  0.11799866  0.85318343  0.29162094     0.36700
C307        C  0.12792141  0.76187263  0.31182791     0.36500
C308        C  0.27994952  0.81568607  0.30264658     0.37200
N309        N  0.14283738  0.86022691  0.48317224    -0.43600
N310        N  0.11400032  0.85267348  0.25924216    -0.44000
N311        N  0.30921437  0.83042926  0.30388372    -0.41400
N312        N  0.09710533  0.75073206  0.31453209    -0.42800
H313        H  0.18285548  0.73084211  0.27294522     0.13400
H314        H  0.22483571  0.84339960  0.34214269     0.09800
H315        H  0.17653759  0.81706498  0.40308978     0.10900
H316        H  0.07971299  0.89622531  0.33885796     0.16700
C317        C  0.82461326  0.77442709  0.32825327    -0.01500
C318        C  0.81980736  0.81327209  0.33259268     0.07100
C319        C  0.78992514  0.83136146  0.31392394    -0.07400
C320        C  0.76603070  0.81182553  0.28924398     0.04600
C321        C  0.77386832  0.77334276  0.28023035    -0.14700
C322        C  0.80163264  0.75490850  0.30281742    -0.08000
C323        C  0.84591193  0.83599961  0.35592938     0.05500
C324        C  0.87825463  0.85137526  0.33879666    -0.09100
C325        C  0.90202303  0.87598102  0.35848498     0.00500
C326        C  0.89367039  0.88540905  0.39649484     0.00400
C327        C  0.86167461  0.86875839  0.41381834    -0.12700
C328        C  0.83775392  0.84451059  0.39382199     0.00800
C329        C  0.93374245  0.89198219  0.33816445     0.40100
C330        C  0.80455735  0.82923392  0.41237406     0.36700
C331        C  0.85288692  0.75404724  0.34969496     0.36500
C332        C  0.73233338  0.83192572  0.27727699     0.37200
N333        N  0.95897139  0.90481115  0.32155102    -0.43600
N334        N  0.77787973  0.81696686  0.42708183    -0.44000
N335        N  0.70528827  0.84846090  0.26846507    -0.41400
N336        N  0.87535391  0.73772121  0.36713557    -0.42800
H337        H  0.80638620  0.72509836  0.29958649     0.13400
H338        H  0.78485435  0.86093754  0.31926792     0.09800
H339        H  0.88434781  0.84487909  0.30948558     0.10900
H340        H  0.85472998  0.87500783  0.44294156     0.16700
C341        C  0.82963892  0.17760495  0.27913039    -0.01500
C342        C  0.82160818  0.17124470  0.31749287     0.07100
C343        C  0.78905236  0.18767480  0.33331828    -0.07400
C344        C  0.76465982  0.21045367  0.31206786     0.04600
C345        C  0.77446629  0.22053060  0.27411241    -0.14700
C346        C  0.80605206  0.20137195  0.25798710    -0.08000
C347        C  0.84637000  0.14746551  0.34187590     0.05500
C348        C  0.88461812  0.15764275  0.34709660    -0.09100
C349        C  0.90817984  0.13741832  0.37178186     0.00500
C350        C  0.89343552  0.10647679  0.39181665     0.00400
C351        C  0.85520354  0.09641123  0.38679431    -0.12700
C352        C  0.83169502  0.11644699  0.36203723     0.00800
C353        C  0.94668831  0.15019462  0.37764746     0.40100
C354        C  0.79271496  0.10438199  0.35761588     0.36700
C355        C  0.86156003  0.15967393  0.26053653     0.36500
C356        C  0.72871157  0.21926769  0.32996918     0.37200
N357        N  0.97739675  0.16080594  0.38253983    -0.43600
N358        N  0.76139710  0.09491831  0.35431721    -0.44000
N359        N  0.69996759  0.22539840  0.34488373    -0.41400
N360        N  0.88708140  0.14543352  0.24539885    -0.42800
H361        H  0.81325229  0.20594528  0.22863500     0.13400
H362        H  0.78210667  0.18189971  0.36261578     0.09800
H363        H  0.89582951  0.18200948  0.33251208     0.10900
H364        H  0.84379020  0.07239584  0.40180623     0.16700
C365        C  0.21538614  0.79572439  0.65876263    -0.01500
C366        C  0.18782593  0.82132220  0.67204652     0.07100
C367        C  0.18267805  0.82517547  0.71097036    -0.07400
C368        C  0.20352366  0.80337934  0.73671498     0.04600
C369        C  0.22972237  0.77517998  0.72382245    -0.14700
C370        C  0.23661305  0.77421740  0.68427934    -0.08000
C371        C  0.16408671  0.84459035  0.64610370     0.05500
C372        C  0.12423425  0.84125212  0.64768397    -0.09100
C373        C  0.10064685  0.86332695  0.62462818     0.00500
C374        C  0.11691398  0.88907896  0.59897985     0.00400
C375        C  0.15682339  0.89210409  0.59712956    -0.12700
C376        C  0.18034050  0.87075470  0.62088798     0.00800
C377        C  0.05989027  0.85851093  0.62740505     0.40100
C378        C  0.22088246  0.87762104  0.62030855     0.36700
C379        C  0.22225735  0.79044756  0.61890620     0.36500
C380        C  0.19618262  0.81073942  0.77609544     0.37200
N381        N  0.02721976  0.85469639  0.62962698    -0.43600
N382        N  0.25340073  0.88291556  0.62001815    -0.44000
N383        N  0.18900882  0.81793882  0.80714507    -0.41400
N384        N  0.22808479  0.78633757  0.58702523    -0.42800
H385        H  0.25908837  0.75717711  0.67229932     0.13400
H386        H  0.16218222  0.84565320  0.72137352     0.09800
H387        H  0.11152476  0.82137304  0.66711059     0.10900
H388        H  0.16972189  0.91229481  0.57819516     0.16700
C389        C  0.67899784  0.11048370  0.13424018    -0.01500
C390        C  0.66356793  0.14108307  0.15456932     0.07100
C391        C  0.62450098  0.14912662  0.15108617    -0.07400
C392        C  0.60102984  0.12784101  0.12738648     0.04600
C393        C  0.61663056  0.09791653  0.10601724    -0.14700
C394        C  0.65564234  0.08937414  0.11027469    -0.08000
C395        C  0.68765690  0.16583013  0.17867775     0.05500
C396        C  0.71815384  0.18531698  0.16246544    -0.09100
C397        C  0.74029151  0.21042370  0.18356993     0.00500
C398        C  0.72979269  0.21964351  0.22159439     0.00400
C399        C  0.70165795  0.19644429  0.23825569    -0.12700
C400        C  0.68048077  0.17052395  0.21742045     0.00800
C401        C  0.77517213  0.22254129  0.16571361     0.40100
C402        C  0.65179509  0.14870920  0.23666480     0.36700
C403        C  0.71856380  0.09975387  0.13804552     0.36500
C404        C  0.56088558  0.13683142  0.12641800     0.37200
N405        N  0.80318745  0.23149713  0.15097120    -0.43600
N406        N  0.62890225  0.13120505  0.25220772    -0.44000
N407        N  0.52867667  0.14398291  0.12590827    -0.41400
N408        N  0.75025612  0.09114199  0.14115989    -0.42800
H409        H  0.66831804  0.06644788  0.09445942     0.13400
H410        H  0.61231040  0.17244770  0.16678709     0.09800
H411        H  0.72523573  0.18028748  0.13303447     0.10900
H412        H  0.69476727  0.19968975  0.26784530     0.16700
C413        C  0.34974720  0.11257934  0.15147195    -0.01500
C414        C  0.35317738  0.15191147  0.15392451     0.07100
C415        C  0.38124430  0.16993906  0.13256994    -0.07400
C416        C  0.40544007  0.14970065  0.10841487     0.04600
C417        C  0.40144973  0.11016421  0.10482149    -0.14700
C418        C  0.37334440  0.09218789  0.12667558    -0.08000
C419        C  0.32776925  0.17512294  0.17833258     0.05500
C420        C  0.33185090  0.17344380  0.21741621    -0.09100
C421        C  0.31009626  0.19650423  0.24137103     0.00500
C422        C  0.28350811  0.22329426  0.22636796     0.00400
C423        C  0.27791235  0.22212227  0.18669654    -0.12700
C424        C  0.30027266  0.19945637  0.16297480     0.00800
C425        C  0.31661026  0.19137943  0.28118726     0.40100
C426        C  0.29413410  0.20129412  0.12274465     0.36700
C427        C  0.32212331  0.09267620  0.17405058     0.36500
C428        C  0.43286318  0.17112857  0.08711684     0.37200
N429        N  0.32329433  0.18569204  0.31261803    -0.43600
N430        N  0.28937998  0.20284700  0.09049678    -0.44000
N431        N  0.45465989  0.18912394  0.07059861    -0.41400
N432        N  0.30016938  0.07683518  0.19248414    -0.42800
H433        H  0.36997076  0.06201395  0.12463282     0.13400
H434        H  0.38411628  0.20018465  0.13471697     0.09800
H435        H  0.35261328  0.15413580  0.22931229     0.10900
H436        H  0.25573405  0.23841803  0.17334379     0.16700
C437        C  0.38960689  0.85011248  0.15561841    -0.01500
C438        C  0.35003558  0.84516241  0.14986789     0.07100
C439        C  0.33236522  0.86493985  0.12038137    -0.07400
C440        C  0.35315748  0.88899178  0.09678708     0.04600
C441        C  0.39280375  0.89347248  0.10212371    -0.14700
C442        C  0.41063241  0.87349560  0.13138385    -0.08000
C443        C  0.32616490  0.82034962  0.17446372     0.05500
C444        C  0.29351504  0.83524532  0.19190419    -0.09100
C445        C  0.26981968  0.81306269  0.21479093     0.00500
C446        C  0.28071125  0.77543500  0.22427659     0.00400
C447        C  0.31092529  0.75997401  0.20265214    -0.12700
C448        C  0.33346924  0.78163516  0.17839288     0.00800
C449        C  0.23304229  0.82907400  0.22391737     0.40100
C450        C  0.36317658  0.76309847  0.15701338     0.36700
C451        C  0.40909739  0.83286498  0.18702491     0.36500
C452        C  0.33318442  0.90739669  0.06637251     0.37200
N453        N  0.20347226  0.84213808  0.23048428    -0.43600
N454        N  0.38685837  0.74800958  0.13990682    -0.44000
N455        N  0.31701633  0.92209569  0.04203968    -0.41400
N456        N  0.42504947  0.81923411  0.21210507    -0.42800
H457        H  0.44099747  0.87689236  0.13589796     0.13400
H458        H  0.30208385  0.86131008  0.11554823     0.09800
H459        H  0.28572032  0.86434478  0.18655309     0.10900
H460        H  0.31845947  0.73051095  0.20591745     0.16700
C461        C  0.67562209  0.85840334  0.87794400    -0.01500
C462        C  0.66265921  0.84013281  0.84519062     0.07100
C463        C  0.62469570  0.84518693  0.83380407    -0.07400
C464        C  0.59976056  0.86838688  0.85439160     0.04600
C465        C  0.61284193  0.88708702  0.88690767    -0.14700
C466        C  0.65089791  0.88202215  0.89820231    -0.08000
C467        C  0.68853312  0.81640000  0.82188541     0.05500
C468        C  0.68342531  0.77749483  0.82120551    -0.09100
C469        C  0.70643149  0.75428226  0.79851090     0.00500
C470        C  0.73490754  0.77007974  0.77436188     0.00400
C471        C  0.74103216  0.80929433  0.77764104    -0.12700
C472        C  0.71806088  0.83219866  0.80036857     0.00800
C473        C  0.69819650  0.71460388  0.79926106     0.40100
C474        C  0.72514977  0.87212369  0.80068624     0.36700
C475        C  0.71386901  0.85238813  0.89172691     0.36500
C476        C  0.56141356  0.87383612  0.84073034     0.37200
N477        N  0.69080449  0.68297970  0.80019399    -0.43600
N478        N  0.73102422  0.90406672  0.80091764    -0.44000
N479        N  0.53069923  0.87838725  0.82976530    -0.41400
N480        N  0.74452532  0.84722797  0.90258963    -0.42800
H481        H  0.66111221  0.89584684  0.92344030     0.13400
H482        H  0.61470812  0.83135249  0.80847541     0.09800
H483        H  0.66105454  0.76521204  0.83833413     0.10900
H484        H  0.76424528  0.82283369  0.76311957     0.16700
C485        C  0.39501320  0.15552666  0.83367118    -0.01500
C486        C  0.35481017  0.15376267  0.83469403     0.07100
C487        C  0.33735481  0.12838926  0.85946686    -0.07400
C488        C  0.35891233  0.10562913  0.88364873     0.04600
C489        C  0.39924264  0.10798331  0.88356061    -0.14700
C490        C  0.41676539  0.13304814  0.85823333    -0.08000
C491        C  0.32986507  0.17751169  0.81023500     0.05500
C492        C  0.30443698  0.15981693  0.78582987    -0.09100
C493        C  0.27782581  0.18017160  0.76440799     0.00500
C494        C  0.27516124  0.22026907  0.76801507     0.00400
C495        C  0.30296602  0.23759445  0.79116431    -0.12700
C496        C  0.32915851  0.21690980  0.81260498     0.00800
C497        C  0.25673618  0.15784449  0.73781919     0.40100
C498        C  0.35324266  0.23678768  0.83869054     0.36700
C499        C  0.41453189  0.17951312  0.80712092     0.36500
C500        C  0.33839069  0.08137167  0.90916708     0.37200
N501        N  0.24109445  0.13857220  0.71669143    -0.43600
N502        N  0.37252104  0.25273860  0.85961814    -0.44000
N503        N  0.32160374  0.06210768  0.92953252    -0.41400
N504        N  0.43003418  0.19889914  0.78588664    -0.42800
H505        H  0.44760507  0.13484459  0.85729710     0.13400
H506        H  0.30646766  0.12678861  0.86032488     0.09800
H507        H  0.30565747  0.12942844  0.78333096     0.10900
H508        H  0.30281136  0.26790717  0.79417127     0.16700
C509        C  0.66259260  0.78679215  0.19644616    -0.01500
C510        C  0.67849644  0.81466748  0.17314779     0.07100
C511        C  0.71782847  0.82087238  0.17479283    -0.07400
C512        C  0.74131068  0.80032789  0.19935378     0.04600
C513        C  0.72560736  0.77238182  0.22379441    -0.14700
C514        C  0.68597619  0.76549253  0.22023778    -0.08000
C515        C  0.65463515  0.83862997  0.14786177     0.05500
C516        C  0.65535995  0.87782570  0.15250911    -0.09100
C517        C  0.63309483  0.90152985  0.12978650     0.00500
C518        C  0.60911532  0.88604512  0.10206108     0.00400
C519        C  0.60859958  0.84692115  0.09717431    -0.12700
C520        C  0.63149879  0.82327422  0.11924333     0.00800
C521        C  0.63436557  0.94153614  0.13625734     0.40100
C522        C  0.63154771  0.78353030  0.11112395     0.36700
C523        C  0.62202552  0.78004984  0.19746563     0.36500
C524        C  0.78107370  0.81056165  0.20004332     0.37200
N525        N  0.63520761  0.97362882  0.14128679    -0.43600
N526        N  0.63131748  0.75167028  0.10471406    -0.44000
N527        N  0.81268054  0.81970550  0.20040940    -0.41400
N528        N  0.58956842  0.77445659  0.19823890    -0.42800
H529        H  0.67240237  0.74297778  0.23547225     0.13400
H530        H  0.73027487  0.84238077  0.15697587     0.09800
H531        H  0.67314288  0.88993272  0.17428665     0.10900
H532        H  0.59097422  0.83475028  0.07531373     0.16700
C533        C  0.37726825  0.83548695  0.86281211    -0.01500
C534        C  0.35463928  0.85101200  0.83374779     0.07100
C535        C  0.35637912  0.88982579  0.82677246    -0.07400
C536        C  0.37907419  0.91321453  0.84910802     0.04600
C537        C  0.39961589  0.89792671  0.87966342    -0.14700
C538        C  0.39922286  0.85895002  0.88552516    -0.08000
C539        C  0.32712328  0.82743026  0.81255203     0.05500
C540        C  0.30032283  0.80684327  0.83310455    -0.09100
C541        C  0.27513276  0.78208773  0.81560221     0.00500
C542        C  0.27680077  0.77666080  0.77560032     0.00400
C543        C  0.30135104  0.80092919  0.75506876    -0.12700
C544        C  0.32669931  0.82531184  0.77296891     0.00800
C545        C  0.24705407  0.76582319  0.84045384     0.40100
C546        C  0.35342992  0.84602769  0.75005179     0.36700
C547        C  0.37844731  0.79552726  0.86997359     0.36500
C548        C  0.38203360  0.95239810  0.83915805     0.37200
N549        N  0.22480089  0.75388018  0.86139483    -0.43600
N550        N  0.37478450  0.86260124  0.73157953    -0.44000
N551        N  0.38482432  0.98370527  0.83086879    -0.41400
N552        N  0.37930731  0.76353906  0.87574065    -0.42800
H553        H  0.41545489  0.84677973  0.90848036     0.13400
H554        H  0.33946565  0.90199700  0.80433641     0.09800
H555        H  0.29899332  0.81038537  0.86346332     0.10900
H556        H  0.30250908  0.79900065  0.72459876     0.16700
C557        C  0.79515014  0.19387670  0.66257091    -0.01500
C558        C  0.82223437  0.16942009  0.67833267     0.07100
C559        C  0.82595126  0.16769426  0.71742548    -0.07400
C560        C  0.80517069  0.19191465  0.74097351     0.04600
C561        C  0.78110783  0.22052286  0.72526164    -0.14700
C562        C  0.77427574  0.21816356  0.68588081    -0.08000
C563        C  0.84757549  0.14593013  0.65450108     0.05500
C564        C  0.88585154  0.15642029  0.65025157    -0.09100
C565        C  0.91060617  0.13560248  0.62717619     0.00500
C566        C  0.89703874  0.10366518  0.60809682     0.00400
C567        C  0.85873736  0.09316055  0.61248124    -0.12700
C568        C  0.83405979  0.11388034  0.63566887     0.00800
C569        C  0.94914483  0.14865533  0.62187040     0.40100
C570        C  0.79516679  0.10156571  0.64016597     0.36700
C571        C  0.78866285  0.19487644  0.62237462     0.36500
C572        C  0.81162479  0.18744538  0.78088489     0.37200
N573        N  0.97996748  0.15914224  0.61722390    -0.43600
N574        N  0.76397228  0.09178472  0.64383939    -0.44000
N575        N  0.81825015  0.18222298  0.81240912    -0.41400
N576        N  0.78348237  0.19547748  0.59016320    -0.42800
H577        H  0.75252850  0.23502829  0.67253090     0.13400
H578        H  0.84586042  0.14768770  0.72959926     0.09800
H579        H  0.89617405  0.18126840  0.66450032     0.10900
H580        H  0.84820870  0.06841071  0.59821059     0.16700
C581        C  0.62887029  0.16310524  0.86039077    -0.01500
C582        C  0.65547152  0.14865605  0.83421494     0.07100
C583        C  0.65875742  0.10954031  0.82988517    -0.07400
C584        C  0.63702415  0.08492636  0.85219662     0.04600
C585        C  0.61161738  0.09951183  0.87965840    -0.14700
C586        C  0.60724541  0.13865811  0.88259634    -0.08000
C587        C  0.68165333  0.17404514  0.81314570     0.05500
C588        C  0.70778212  0.19538564  0.83350520    -0.09100
C589        C  0.73336522  0.21990913  0.81571632     0.00500
C590        C  0.73275807  0.22446375  0.77547188     0.00400
C591        C  0.70635698  0.20170555  0.75553087    -0.12700
C592        C  0.68123435  0.17710346  0.77370263     0.00800
C593        C  0.76079387  0.23665377  0.84069568     0.40100
C594        C  0.65470819  0.15582257  0.75129238     0.36700
C595        C  0.62335698  0.20303609  0.86513454     0.36500
C596        C  0.64075152  0.04507614  0.84559379     0.37200
N597        N  0.78242207  0.24887854  0.86194084    -0.43600
N598        N  0.63345826  0.13868521  0.73340133    -0.44000
N599        N  0.64371954  0.01315620  0.84008337    -0.41400
N600        N  0.61893602  0.23502525  0.86901822    -0.42800
H601        H  0.58756552  0.15041810  0.90311790     0.13400
H602        H  0.67889476  0.09822810  0.80954009     0.09800
H603        H  0.70868530  0.19213696  0.86399749     0.10900
H604        H  0.70498963  0.20361786  0.72500305     0.16700
C605        C  0.16692114  0.29881687  0.21274644    -0.01500
C606        C  0.18196282  0.32451633  0.18667494     0.07100
C607        C  0.22147787  0.32705519  0.18248849    -0.07400
C608        C  0.24618795  0.30363817  0.20290886     0.04600
C609        C  0.23152985  0.27598047  0.22838078    -0.14700
C610        C  0.19129930  0.27529184  0.23315280    -0.08000
C611        C  0.15695409  0.34816317  0.16256564     0.05500
C612        C  0.15739295  0.38739503  0.16660296    -0.09100
C613        C  0.13486219  0.41043853  0.14340116     0.00500
C614        C  0.11126352  0.39409932  0.11581824     0.00400
C615        C  0.11067038  0.35484995  0.11214314    -0.12700
C616        C  0.13355722  0.33193978  0.13481545     0.00800
C617        C  0.13566593  0.45056767  0.14906489     0.40100
C618        C  0.13382871  0.29195534  0.12799286     0.36700
C619        C  0.12641178  0.29661361  0.21990055     0.36500
C620        C  0.28646538  0.30819648  0.19577159     0.37200
N621        N  0.13622881  0.48273282  0.15363340    -0.43600
N622        N  0.13420584  0.25992343  0.12252647    -0.44000
N623        N  0.31855158  0.31209275  0.18926030    -0.41400
N624        N  0.09402581  0.29454520  0.22578855    -0.42800
H625        H  0.17795930  0.25774772  0.25413332     0.13400
H626        H  0.23310739  0.34710767  0.16252593     0.09800
H627        H  0.17536919  0.39997580  0.18792161     0.10900
H628        H  0.09316137  0.34196594  0.09062289     0.16700
C629        C  0.15616669  0.61294582  0.16584141    -0.01500
C630        C  0.16706644  0.64930724  0.15391439     0.10300
C631        C  0.15474237  0.66224848  0.11852966    -0.07400
C632        C  0.13051441  0.64075103  0.09608524     0.04600
C633        C  0.11914308  0.60480929  0.10826569    -0.14700
C634        C  0.13274795  0.59092992  0.14276233    -0.08000
C635        C  0.19102409  0.67456804  0.17756648     0.05500
C636        C  0.22630048  0.66184042  0.19091147    -0.09100
C637        C  0.24942160  0.68455926  0.21354647     0.00500
C638        C  0.23710276  0.72169480  0.22388732     0.00400
C639        C  0.20414434  0.73549498  0.20557026    -0.12700
C640        C  0.18014590  0.71199001  0.18499986     0.00800
C641        C  0.28630222  0.66888837  0.22289777     0.40100
C642        C  0.14331800  0.72648242  0.17391091     0.36700
C643        C  0.16762174  0.59792890  0.20195195     0.36500
C644        C  0.11881986  0.65583523  0.06010392     0.37200
N645        N  0.31585562  0.65603072  0.22979007    -0.43600
N646        N  0.11366750  0.73790522  0.16526033    -0.44000
N647        N  0.10953705  0.66807929  0.03129883    -0.41400
N648        N  0.17685644  0.58574442  0.23080691    -0.42800
H649        H  0.12436830  0.56318326  0.15204541     0.13400
H650        H  0.16397862  0.68945069  0.10841596     0.09800
H651        H  0.23608803  0.63394738  0.18319679     0.10900
H652        H  0.19516931  0.76417981  0.20999878     0.16700
C653        C  0.84174299  0.71377354  0.19700938    -0.01500
C654        C  0.82678593  0.68582441  0.17351253     0.07100
C655        C  0.78758719  0.67938156  0.17361217    -0.07400
C656        C  0.76310939  0.69950694  0.19752893     0.04600
C657        C  0.77794554  0.72635750  0.22359625    -0.14700
C658        C  0.81762199  0.73367993  0.22137299    -0.08000
C659        C  0.85174461  0.66160157  0.15000999     0.05500
C660        C  0.85538645  0.62354608  0.15960248    -0.09100
C661        C  0.87902821  0.59958600  0.13866069     0.00500
C662        C  0.90033498  0.61396552  0.10817441     0.00400
C663        C  0.89646626  0.65205482  0.09838164    -0.12700
C664        C  0.87171747  0.67570547  0.11853886     0.00800
C665        C  0.88144234  0.56051779  0.14936913     0.40100
C666        C  0.86576717  0.71374533  0.10555858     0.36700
C667        C  0.88194942  0.72236560  0.19685264     0.36500
C668        C  0.72330145  0.68954275  0.19606077     0.37200
N669        N  0.88326772  0.52915608  0.15778838    -0.43600
N670        N  0.86047859  0.74414140  0.09515963    -0.44000
N671        N  0.69172595  0.68045920  0.19439549    -0.41400
N672        N  0.91411029  0.72941603  0.19643596    -0.42800
H673        H  0.83049479  0.75562185  0.23787708     0.13400
H674        H  0.77609256  0.65797484  0.15515693     0.09800
H675        H  0.83968959  0.61257735  0.18359415     0.10900
H676        H  0.91181264  0.66305300  0.07419404     0.16700
C677        C  0.16052871  0.70059891  0.79079070    -0.01500
C678        C  0.17534721  0.67407765  0.81615401     0.07100
C679        C  0.21473642  0.67064939  0.82002080    -0.07400
C680        C  0.23966025  0.69428727  0.80042212     0.04600
C681        C  0.22530746  0.72282733  0.77558133    -0.14700
C682        C  0.18521357  0.72348037  0.77004052    -0.08000
C683        C  0.15050845  0.64954970  0.83927112     0.05500
C684        C  0.15129654  0.61061095  0.83307364    -0.09100
C685        C  0.13005498  0.58627100  0.85592716     0.00500
C686        C  0.10823024  0.60093846  0.88603266     0.00400
C687        C  0.10659162  0.64001019  0.89137752    -0.12700
C688        C  0.12754181  0.66429137  0.86844461     0.00800
C689        C  0.12980962  0.54675458  0.84688764     0.40100
C690        C  0.12591440  0.70409087  0.87617064     0.36700
C691        C  0.11993388  0.70462860  0.78526653     0.36500
C692        C  0.27959143  0.68883258  0.80848824     0.37200
N693        N  0.12929508  0.51513378  0.83939658    -0.43600
N694        N  0.12436457  0.73599420  0.88221295    -0.44000
N695        N  0.31092352  0.68289178  0.81677180    -0.41400
N696        N  0.08738982  0.70816731  0.78126530    -0.42800
H697        H  0.17217593  0.74118530  0.74905535     0.13400
H698        H  0.22610862  0.64982073  0.83938230     0.09800
H699        H  0.16851140  0.59928109  0.81026025     0.10900
H700        H  0.08973716  0.65166574  0.91428876     0.16700
C701        C  0.80074675  0.65577423  0.79611137    -0.01500
C702        C  0.82839567  0.67090915  0.82017989     0.07100
C703        C  0.83227563  0.70987967  0.82229896    -0.07400
C704        C  0.80995150  0.73393129  0.80000645     0.04600
C705        C  0.78272699  0.71905449  0.77407561    -0.14700
C706        C  0.77751808  0.67957804  0.77472037    -0.08000
C707        C  0.85307280  0.64661617  0.84399540     0.05500
C708        C  0.89248781  0.64546625  0.83710429    -0.09100
C709        C  0.91669514  0.62331551  0.85948122     0.00500
C710        C  0.90137444  0.60206087  0.88957850     0.00400
C711        C  0.86184304  0.60271763  0.89583502    -0.12700
C712        C  0.83778739  0.62500605  0.87368514     0.00800
C713        C  0.95676912  0.62189345  0.85007647     0.40100
C714        C  0.79770338  0.62646708  0.88295314     0.36700
C715        C  0.79644416  0.61568645  0.79183732     0.36500
C716        C  0.81754841  0.77357693  0.80349358     0.37200
N717        N  0.98883730  0.62067419  0.84234835    -0.43600
N718        N  0.76557701  0.62769407  0.89036992    -0.44000
N719        N  0.82459926  0.80508751  0.80706490    -0.41400
N720        N  0.79306066  0.58359722  0.78813802    -0.42800
H721        H  0.75521499  0.66639847  0.75870467     0.13400
H722        H  0.85325621  0.72158728  0.84130329     0.09800
H723        H  0.90429239  0.66178731  0.81403494     0.10900
H724        H  0.84974478  0.58676419  0.91900128     0.16700
C725        C  0.17618555  0.32513294  0.77704681    -0.01500
C726        C  0.17591593  0.32337014  0.81655976     0.07100
C727        C  0.19658306  0.29498651  0.83458996    -0.07400
C728        C  0.21878311  0.26911125  0.81428283     0.04600
C729        C  0.22140915  0.27181440  0.77396106    -0.14700
C730        C  0.19757021  0.29904826  0.75638426    -0.08000
C731        C  0.15275247  0.34958203  0.83984535     0.05500
C732        C  0.11291660  0.34844951  0.83713619    -0.09100
C733        C  0.08984051  0.37010703  0.86109357     0.00500
C734        C  0.10677414  0.39388553  0.88815482     0.00400
C735        C  0.14673547  0.39612249  0.88964592    -0.12700
C736        C  0.16971672  0.37384724  0.86623367     0.00800
C737        C  0.04903557  0.36725895  0.85700513     0.40100
C738        C  0.21060727  0.37570034  0.87038303     0.36700
C739        C  0.15639563  0.35472987  0.75712132     0.36500
C740        C  0.23495399  0.23920043  0.83669816     0.37200
N741        N  0.01636028  0.36457178  0.85361604    -0.43600
N742        N  0.24335790  0.37689029  0.87393537    -0.44000
N743        N  0.24691480  0.21543783  0.85565436    -0.41400
N744        N  0.14083912  0.37867642  0.74121317    -0.42800
H745        H  0.19755635  0.30145305  0.72587043     0.13400
H746        H  0.19475587  0.29269171  0.86511043     0.09800
H747        H  0.09980530  0.32973687  0.81689359     0.10900
H748        H  0.16017714  0.41423545  0.91020663     0.16700
C749        C  0.84607185  0.39215295  0.16275618    -0.01500
C750        C  0.85414135  0.35373216  0.16842859     0.07100
C751        C  0.88705243  0.33829961  0.15185478    -0.07400
C752        C  0.91097864  0.36002282  0.12880932     0.04600
C753        C  0.90171174  0.39815967  0.12124094    -0.14700
C754        C  0.86962336  0.41386953  0.13936299    -0.08000
C755        C  0.82792415  0.32877328  0.19020252     0.05500
C756        C  0.79035139  0.32420125  0.17796344    -0.09100
C757        C  0.76518754  0.29959843  0.19632620     0.00500
C758        C  0.77803193  0.27637667  0.22670623     0.00400
C759        C  0.81538217  0.28369745  0.24026677    -0.12700
C760        C  0.83995862  0.30911429  0.22242993     0.00800
C761        C  0.72725673  0.29767286  0.18099327     0.40100
C762        C  0.87689232  0.31593076  0.23885550     0.36700
C763        C  0.81398858  0.41004118  0.18108751     0.36500
C764        C  0.94431382  0.34187125  0.11302889     0.37200
N765        N  0.69767811  0.29696809  0.16669467    -0.43600
N766        N  0.90636208  0.32166858  0.25216577    -0.44000
N767        N  0.97103585  0.32715054  0.10060277    -0.41400
N768        N  0.78829360  0.42429156  0.19591684    -0.42800
H769        H  0.86250938  0.44316352  0.13510284     0.13400
H770        H  0.89366429  0.30886051  0.15634791     0.09800
H771        H  0.78066570  0.33978159  0.15346372     0.10900
H772        H  0.82565959  0.27053182  0.26578582     0.16700
C773        C  0.85143919  0.39094999  0.84377483    -0.01500
C774        C  0.85245094  0.35133891  0.84531498     0.07100
C775        C  0.87748450  0.33376916  0.87068092    -0.07400
C776        C  0.90039598  0.35481106  0.89502804     0.04600
C777        C  0.89786979  0.39453095  0.89498188    -0.14700
C778        C  0.87337805  0.41209942  0.86900179    -0.08000
C779        C  0.82895210  0.32740704  0.81991726     0.05500
C780        C  0.84753372  0.30260002  0.79544416    -0.09100
C781        C  0.82734360  0.27839527  0.77163359     0.00500
C782        C  0.78646774  0.27659381  0.77363834     0.00400
C783        C  0.76834619  0.30393332  0.79683124    -0.12700
C784        C  0.78886438  0.32842151  0.82003987     0.00800
C785        C  0.85075891  0.25934719  0.74406532     0.40100
C786        C  0.76795117  0.35299048  0.84511830     0.36700
C787        C  0.82944333  0.41043604  0.81544974     0.36500
C788        C  0.92553462  0.33464104  0.92018503     0.37200
N789        N  0.87081254  0.24528363  0.72218060    -0.43600
N790        N  0.75122077  0.37283310  0.86509713    -0.44000
N791        N  0.94584587  0.31849732  0.94019654    -0.41400
N792        N  0.81187512  0.42585422  0.79255468    -0.42800
H793        H  0.87193036  0.44249988  0.86782099     0.13400
H794        H  0.87901280  0.30333852  0.87153809     0.09800
H795        H  0.87843313  0.30294998  0.79423354     0.10900
H796        H  0.73752659  0.30483690  0.79836225     0.16700
C797        C  0.66408161  0.65695019  0.60546573    -0.01500
C798        C  0.66953110  0.65087623  0.64427906     0.07100
C799        C  0.64961704  0.62212633  0.66250136    -0.07400
C800        C  0.62350637  0.60000288  0.64284832     0.04600
C801        C  0.61714713  0.60651536  0.60389097    -0.14700
C802        C  0.63826730  0.63467410  0.58556244    -0.08000
C803        C  0.69288221  0.67641652  0.66737571     0.05500
C804        C  0.67472309  0.70613995  0.68582911    -0.09100
C805        C  0.69479177  0.73018521  0.70973551     0.00500
C806        C  0.73408045  0.72279636  0.71808027     0.00400
C807        C  0.75250838  0.69539214  0.69531019    -0.12700
C808        C  0.73236271  0.67175892  0.67119016     0.00800
C809        C  0.67435587  0.76355679  0.72132244     0.40100
C810        C  0.75267479  0.64236774  0.65143821     0.36700
C811        C  0.68351739  0.68683987  0.58587187     0.36500
C812        C  0.60244247  0.57240061  0.66416061     0.37200
N813        N  0.65734753  0.79021700  0.72977587    -0.43600
N814        N  0.76921868  0.61885864  0.63578432    -0.44000
N815        N  0.58555962  0.55047616  0.68149476    -0.41400
N816        N  0.69894163  0.71089387  0.57015934    -0.42800
H817        H  0.63420129  0.63989785  0.55577458     0.13400
H818        H  0.65361302  0.61781178  0.69249887     0.09800
H819        H  0.64453185  0.71102618  0.68080713     0.10900
H820        H  0.78300750  0.69086812  0.69793900     0.16700
C821        C  0.34314981  0.34983669  0.61636227    -0.01500
C822        C  0.34650895  0.34777335  0.65603708     0.07100
C823        C  0.37511058  0.36855019  0.67387182    -0.07400
C824        C  0.39971453  0.39155086  0.65314457     0.04600
C825        C  0.39616580  0.39390013  0.61347743    -0.14700
C826        C  0.36813946  0.37248990  0.59548077    -0.08000
C827        C  0.32166232  0.32307106  0.67943303     0.05500
C828        C  0.32216553  0.28433069  0.67307841    -0.09100
C829        C  0.29993223  0.25978227  0.69480395     0.00500
C830        C  0.27479392  0.27385705  0.72344314     0.00400
C831        C  0.27791418  0.31278065  0.73169501    -0.12700
C832        C  0.29971979  0.33717180  0.70956663     0.00800
C833        C  0.30364873  0.22040432  0.68593979     0.40100
C834        C  0.29849629  0.37680613  0.71822853     0.36700
C835        C  0.31363483  0.32989949  0.59653477     0.36500
C836        C  0.42953317  0.41074651  0.67327593     0.37200
N837        N  0.30788594  0.18926219  0.67756099    -0.43600
N838        N  0.29729099  0.40849146  0.72538801    -0.44000
N839        N  0.45344814  0.42603969  0.68948580    -0.41400
N840        N  0.28997089  0.31406472  0.58049862    -0.42800
H841        H  0.36528400  0.37403296  0.56504591     0.13400
H842        H  0.37859231  0.36633698  0.70420108     0.09800
H843        H  0.34048753  0.27307721  0.65104819     0.10900
H844        H  0.26391917  0.32504600  0.75592969     0.16700
C845        C  0.72393385  0.31796290  0.32691514    -0.01500
C846        C  0.68423027  0.32170650  0.32425336     0.07100
C847        C  0.66528385  0.30375314  0.29476873    -0.07400
C848        C  0.68487953  0.28117847  0.26848281     0.04600
C849        C  0.72512965  0.27496020  0.27214685    -0.14700
C850        C  0.74379796  0.29575703  0.30083148    -0.08000
C851        C  0.66204771  0.34545464  0.35105626     0.05500
C852        C  0.66439054  0.38467116  0.34812288    -0.09100
C853        C  0.64270164  0.40815086  0.37176815     0.00500
C854        C  0.61838787  0.39235837  0.39935751     0.00400
C855        C  0.61685325  0.35304855  0.40275501    -0.12700
C856        C  0.63809411  0.32964465  0.37877564     0.00800
C857        C  0.64655179  0.44826706  0.36749516     0.40100
C858        C  0.63453635  0.28951780  0.38315150     0.36700
C859        C  0.74476617  0.33510122  0.35739450     0.36500
C860        C  0.66187456  0.26700246  0.23811629     0.37200
N861        N  0.64985976  0.48039268  0.36392149    -0.43600
N862        N  0.63114145  0.25744677  0.38707038    -0.44000
N863        N  0.64217570  0.25609363  0.21443569    -0.41400
N864        N  0.76150360  0.34854037  0.38195321    -0.42800
H865        H  0.77429272  0.29272705  0.30458428     0.13400
H866        H  0.63471269  0.30783702  0.29206281     0.09800
H867        H  0.68289842  0.39693963  0.32694688     0.10900
H868        H  0.59817779  0.34036141  0.42348335     0.16700
C869        C  0.28262145  0.67102011  0.32311199    -0.01500
C870        C  0.32179104  0.67494625  0.32937764     0.07100
C871        C  0.34118097  0.70487270  0.31271874    -0.07400
C872        C  0.32267269  0.73034249  0.28874812     0.04600
C873        C  0.28313948  0.72554160  0.28014531    -0.14700
C874        C  0.26371408  0.69658828  0.29987890    -0.08000
C875        C  0.34376054  0.64741522  0.35191272     0.05500
C876        C  0.37225509  0.62643832  0.33371684    -0.09100
C877        C  0.39545988  0.60165011  0.35393826     0.00500
C878        C  0.39028507  0.59773612  0.39333375     0.00400
C879        C  0.36139543  0.61839334  0.41141922    -0.12700
C880        C  0.33804808  0.64303627  0.39104336     0.00800
C881        C  0.42563149  0.58258277  0.33367243     0.40100
C882        C  0.30935537  0.66442453  0.41104099     0.36700
C883        C  0.26161914  0.63959231  0.33818051     0.36500
C884        C  0.34604184  0.76076773  0.27547862     0.37200
N885        N  0.44971108  0.56742133  0.31717068    -0.43600
N886        N  0.28615843  0.68143284  0.42693975    -0.44000
N887        N  0.36610869  0.78454726  0.26560035    -0.41400
N888        N  0.24480402  0.61435279  0.35014009    -0.42800
H889        H  0.23363351  0.69212813  0.29502568     0.13400
H890        H  0.37136293  0.70819463  0.31847071     0.09800
H891        H  0.37676375  0.62998864  0.30366821     0.10900
H892        H  0.35739412  0.61559438  0.44160449     0.16700
C893        C  0.66207820  0.65231330  0.39015719    -0.01500
C894        C  0.65527546  0.65737777  0.35137698     0.07100
C895        C  0.62509431  0.63860307  0.33410459    -0.07400
C896        C  0.60192634  0.61429709  0.35483666     0.04600
C897        C  0.60899622  0.60863061  0.39366874    -0.14700
C898        C  0.63863236  0.62834021  0.41112857    -0.08000
C899        C  0.68050761  0.68060843  0.32773374     0.05500
C900        C  0.71082332  0.66318777  0.30903938    -0.09100
C901        C  0.73522312  0.68354993  0.28544732     0.00500
C902        C  0.72775748  0.72249590  0.27804703     0.00400
C903        C  0.69904073  0.73990262  0.30033080    -0.12700
C904        C  0.67510265  0.71941769  0.32404707     0.00800
C905        C  0.76877437  0.66344179  0.27286951     0.40100
C906        C  0.64485118  0.73882548  0.34384247     0.36700
C907        C  0.69351846  0.67072884  0.40853295     0.36500
C908        C  0.57043392  0.59669168  0.33575962     0.37200
N909        N  0.79541912  0.64651276  0.26347141    -0.43600
N910        N  0.62066453  0.75463239  0.35954658    -0.44000
N911        N  0.54523868  0.58273426  0.32024881    -0.41400
N912        N  0.71890213  0.68548768  0.42295055    -0.42800
H913        H  0.64399422  0.62431665  0.44099650     0.13400
H914        H  0.61984012  0.64280423  0.30422510     0.09800
H915        H  0.71593219  0.63347052  0.31368859     0.10900
H916        H  0.69411380  0.76978751  0.29798363     0.16700
C917        C  0.63857697  0.33790872  0.63269936    -0.01500
C918        C  0.66478737  0.35341618  0.65830963     0.07100
C919        C  0.66886138  0.39257725  0.65992747    -0.07400
C920        C  0.64633426  0.41632597  0.63739094     0.04600
C921        C  0.61925301  0.40076056  0.61246216    -0.14700
C922        C  0.61628431  0.36150307  0.61006554    -0.08000
C923        C  0.68850688  0.32907904  0.68314754     0.05500
C924        C  0.72767935  0.32648817  0.67659711    -0.09100
C925        C  0.75088829  0.30231373  0.69790845     0.00500
C926        C  0.73478285  0.27845634  0.72631806     0.00400
C927        C  0.69545564  0.28419041  0.73439325    -0.12700
C928        C  0.67256086  0.30843293  0.71298746     0.00800
C929        C  0.79080502  0.30215643  0.68804633     0.40100
C930        C  0.63272400  0.31221017  0.72275341     0.36700
C931        C  0.63424112  0.29780235  0.62887883     0.36500
C932        C  0.65253068  0.45631091  0.63968456     0.37200
N933        N  0.82224820  0.30305157  0.67815283    -0.43600
N934        N  0.60081945  0.31510108  0.73067568    -0.44000
N935        N  0.65769759  0.48832821  0.64161927    -0.41400
N936        N  0.63061488  0.26568100  0.62574083    -0.42800
H937        H  0.59588360  0.34905879  0.59094288     0.13400
H938        H  0.68950906  0.40459274  0.67907507     0.09800
H939        H  0.74016762  0.34315669  0.65414242     0.10900
H940        H  0.68193832  0.27052696  0.75809799     0.16700
C941        C  0.35904907  0.61272083  0.66836694    -0.01500
C942        C  0.33687432  0.64268807  0.65450242     0.07100
C943        C  0.33675066  0.65033231  0.61575113    -0.07400
C944        C  0.35975573  0.62962974  0.59088027     0.04600
C945        C  0.38421813  0.60117410  0.60505858    -0.14700
C946        C  0.38247945  0.59234669  0.64374616    -0.08000
C947        C  0.31564589  0.66789143  0.68034780     0.05500
C948        C  0.33629364  0.69025145  0.70518424    -0.09100
C949        C  0.31815147  0.71514097  0.73001841     0.00500
C950        C  0.27746625  0.71975993  0.72886407     0.00400
C951        C  0.25722755  0.69465131  0.70514117    -0.12700
C952        C  0.27576308  0.66955826  0.68090391     0.00800
C953        C  0.34309401  0.73171930  0.75761611     0.40100
C954        C  0.25327457  0.64558425  0.65698141     0.36700
C955        C  0.35815153  0.60252443  0.70780871     0.36500
C956        C  0.35657406  0.63782854  0.55115803     0.37200
N957        N  0.36412813  0.74372402  0.77956713    -0.43600
N958        N  0.23537637  0.62628591  0.63776974    -0.44000
N959        N  0.35344359  0.64465844  0.51939065    -0.41400
N960        N  0.35713790  0.59448869  0.73942959    -0.42800
H961        H  0.40018562  0.57006441  0.65514190     0.13400
H962        H  0.31906243  0.67299166  0.60502266     0.09800
H963        H  0.36713808  0.68764766  0.70555452     0.10900
H964        H  0.22636395  0.69584006  0.70440333     0.16700
C965        C  0.37410285  0.33115539  0.37613918    -0.01500
C966        C  0.35087101  0.34880813  0.34883818     0.07100
C967        C  0.34820218  0.38812356  0.34842880    -0.07400
C968        C  0.36960291  0.40991745  0.37345539     0.04600
C969        C  0.39417271  0.39226918  0.39968727    -0.14700
C970        C  0.39545541  0.35289214  0.40117226    -0.08000
C971        C  0.32828120  0.32665653  0.32134504     0.05500
C972        C  0.28854915  0.32932968  0.32223217    -0.09100
C973        C  0.26588092  0.30583528  0.30003721     0.00500
C974        C  0.28304225  0.27808841  0.27598480     0.00400
C975        C  0.32327676  0.27902475  0.27257556    -0.12700
C976        C  0.34564874  0.30233860  0.29511869     0.00800
C977        C  0.22519678  0.30885121  0.30592734     0.40100
C978        C  0.38655807  0.30089610  0.29057934     0.36700
C979        C  0.37637655  0.29075596  0.37915022     0.36500
C980        C  0.36508349  0.45023631  0.37212115     0.37200
N981        N  0.19282135  0.31164031  0.31176460    -0.43600
N982        N  0.41933281  0.29944227  0.28703671    -0.44000
N983        N  0.36111791  0.48250393  0.37098514    -0.41400
N984        N  0.37835974  0.25837812  0.38132911    -0.42800
H985        H  0.41399744  0.33891659  0.42124646     0.13400
H986        H  0.32963616  0.40183365  0.32816048     0.09800
H987        H  0.27507048  0.34869982  0.34184567     0.10900
H988        H  0.33808774  0.26186583  0.25212747     0.16700
loop_ 
_geom_bond_atom_site_label_1 
_geom_bond_atom_site_label_2 
_geom_bond_distance 
_geom_bond_site_symmetry_2 
_ccdc_geom_bond_type 
C1           N19   1.349       .  A
C1           C38   1.466       .  S
C1          C969   1.483       .  S
N2           N19   1.323       .  A
N2           N24   1.319       .  A
N2          Co39   2.080       .  S
C3           N28   1.341       .  A
C3           C41   1.463       .  S
C3           H48   1.081       .  S
H4           C45   1.082       .  S
C5           N29   1.340       .  A
C5            C9   1.466       .  S
C5           H34   1.079       .  S
Co6          N24   2.089       .  S
Co6          N14   2.092       .  S
Co6          N46   2.087       .  S
Co6          N22   2.091       .  S
Co6         Cl50   2.453       .  S
N7           C45   1.338       .  A
N7           N14   1.319       .  A
N7           Co8   2.076       .  S
Co8          N11   2.083       .  S
Co8          N28   2.082       .  S
Co8          N15   2.080       .  S
Co8         Cl50   2.444       .  S
C9           N47   1.352       .  A
C9          C945   1.487       .  S
N10          N17   1.319       .  A
N10          N40   1.324       .  A
N10         Co43   2.085       .  S
N11          N29   1.318       .  A
N11          N47   1.323       .  A
N12          C41   1.353       .  A
N12          N22   1.324       .  A
H13          C38   1.081       .  S
N14          N35   1.327       .  A
N15          N33   1.318       .  A
N15          N20   1.322       .  A
C16          N20   1.349       .  A
C16          C44   1.465       .  S
C16         C801   1.486       .  S
N17          C32   1.336       .  A
N17         Co39   2.072       .  S
C18          N46   1.340       .  A
C18          C21   1.463       .  S
C18          H52   1.081       .  S
C21          N42   1.353       .  A
C21         C854   1.487       .  S
N22          N28   1.319       .  A
N23          C49   1.339       .  A
N23          N25   1.320       .  A
N23         Co39   2.081       .  S
N24          C38   1.342       .  A
N25          N53   1.324       .  A
N25         Co43   2.081       .  S
H26          C49   1.081       .  S
H27          C44   1.081       .  S
N29         Co43   2.080       .  S
N30          N42   1.326       .  A
N30          N46   1.320       .  A
N30         Co39   2.088       .  S
C31          N35   1.353       .  A
C31          C45   1.459       .  S
C31         C825   1.482       .  S
C32          C51   1.457       .  S
C32          H36   1.081       .  S
N33          C44   1.341       .  A
N33         Co43   2.083       .  S
C37          N53   1.348       .  A
C37          C49   1.460       .  S
C37         C897   1.474       .  S
Co39        Cl50   2.444       .  S
N40          C51   1.351       .  A
C41         C921   1.486       .  S
Co43        Cl50   2.454       .  S
C51         C878   1.474       .  S
C54          N72   1.351       .  A
C54          C91   1.463       .  S
C54         C734   1.482       .  S
N55          N72   1.324       .  A
N55          N77   1.319       .  A
N55         Co92   2.082   1_556  S
C56          N81   1.343       .  A
C56          C94   1.470       .  S
C56         H101   1.081       .  S
H57          C98   1.081       .  S
C58          N82   1.340       .  A
C58          C62   1.461       .  S
C58          H87   1.082       .  S
Co59         N77   2.083   1_554  S
Co59         N67   2.080   1_454  S
Co59         N99   2.075       .  S
Co59         N75   2.086   1_455  S
Co59       Cl103   2.446       .  S
N60          C98   1.344       .  A
N60          N67   1.319       .  A
N60         Co61   2.091   1_556  S
Co61         N64   2.088   1_554  S
Co61         N81   2.095       .  S
Co61         N68   2.090       .  S
Co61       Cl103   2.451   1_655  S
C62         N100   1.352       .  A
C62         C710   1.481       .  S
N63          N70   1.318       .  A
N63          N93   1.320       .  A
N63         Co96   2.066   1_556  S
N64          N82   1.319       .  A
N64         N100   1.324       .  A
N65          C94   1.351       .  A
N65          N75   1.324       .  A
H66          C91   1.080       .  S
N67          N88   1.323       .  A
N68          N86   1.320       .  A
N68          N73   1.324       .  A
C69          N73   1.350       .  A
C69          C97   1.457       .  S
C69         C662   1.475       .  S
N70          C85   1.343       .  A
N70         Co92   2.091   1_556  S
C71          N99   1.337       .  A
C71          C74   1.457       .  S
C71         H105   1.081       .  S
C74          N95   1.353       .  A
C74         C614   1.479       .  S
N75          N81   1.319       .  A
N76         C102   1.341       .  A
N76          N78   1.321       .  A
N76         Co92   2.082       .  S
N77          C91   1.340       .  A
N78         N106   1.325       .  A
N78         Co96   2.094       .  S
H79         C102   1.082       .  S
H80          C97   1.082       .  S
N82         Co96   2.082   1_656  S
N83          N95   1.327       .  A
N83          N99   1.319       .  A
N83         Co92   2.092       .  S
C84          N88   1.350       .  A
C84          C98   1.465       .  S
C84         C777   1.489       .  S
C85         C104   1.466       .  S
C85          H89   1.081       .  S
N86          C97   1.339       .  A
N86         Co96   2.075   1_655  S
C90         N106   1.352       .  A
C90         C102   1.457       .  S
C90         C633   1.477       .  S
Co92       Cl103   2.453       .  S
N93         C104   1.346       .  A
C94         C753   1.497       .  S
Co96       Cl103   2.448       .  S
C104        C686   1.477       .  S
C107        C561   1.570       .  S
C107        C590   1.581       .  S
C107        C782   1.574       .  S
C107        C926   1.583       .  S
C108        N126   1.351       .  A
C108        C145   1.467       .  S
C108        C489   1.493       .  S
N109        N126   1.324       .  A
N109        N131   1.320       .  A
N109       Co146   2.086       .  S
C110        N135   1.340       .  A
C110        C148   1.462       .  S
C110        H155   1.081       .  S
H111        C152   1.081       .  S
C112        N136   1.343       .  A
C112        C116   1.464       .  S
C112        H141   1.082       .  S
Co113       N131   2.099       .  S
Co113       N121   2.083       .  S
Co113       N153   2.083   1_556  S
Co113       N129   2.103   1_556  S
Co113      Cl157   2.449   1_545  S
N114        C152   1.343       .  A
N114        N121   1.319       .  A
N114       Co115   2.092   1_545  S
Co115       N118   2.079       .  S
Co115       N135   2.079   1_566  S
Co115       N122   2.093   1_556  S
Co115      Cl157   2.457       .  S
C116        N154   1.349       .  A
C116        C465   1.482       .  S
N117        N124   1.320       .  A
N117        N147   1.322       .  A
N117       Co150   2.075       .  S
N118        N136   1.320       .  A
N118        N154   1.324       .  A
N119        C148   1.356       .  A
N119        N129   1.327       .  A
H120        C145   1.082       .  S
N121        N142   1.323       .  A
N122        N140   1.321       .  A
N122        N127   1.325       .  A
C123        N127   1.352       .  A
C123        C151   1.459       .  S
C123        C518   1.481       .  S
N124        C139   1.343       .  A
N124       Co146   2.094   1_565  S
C125        N153   1.338       .  A
C125        C128   1.464       .  S
C125        H159   1.077       .  S
C128        N149   1.357       .  A
C128        C417   1.495       .  S
N129        N135   1.319       .  A
N130        C156   1.342       .  A
N130        N132   1.321       .  A
N130       Co146   2.093   1_564  S
N131        C145   1.345       .  A
N132        N160   1.327       .  A
N132       Co150   2.096   1_554  S
H133        C156   1.081       .  S
H134        C151   1.082       .  S
N136       Co150   2.094       .  S
N137        N149   1.328       .  A
N137        N153   1.320       .  A
N137       Co146   2.104   1_554  S
C138        N142   1.351       .  A
C138        C152   1.467       .  S
C138        C585   1.487       .  S
C139        C158   1.465       .  S
C139        H143   1.081       .  S
N140        C151   1.339       .  A
N140       Co150   2.079   1_554  S
C144        N160   1.352       .  A
C144        C156   1.464       .  S
C144        C441   1.488       .  S
Co146      Cl157   2.459   1_545  S
N147        C158   1.348       .  A
C148        C393   1.494       .  S
Co150      Cl157   2.450       .  S
C158        C537   1.479       .  S
C161        C369   1.583       .  S
C161        C542   1.564       .  S
C161        C681   1.572       .  S
C161        C950   1.574       .  S
C162        N180   1.350       .  A
C162        C199   1.462       .  S
C162        C350   1.476       .  S
N163        N180   1.325       .  A
N163        N185   1.321       .  A
N163       Co200   2.084   1_545  S
C164        N189   1.336       .  A
C164        C202   1.460       .  S
C164        H209   1.081       .  S
H165        C206   1.081       .  S
C166        N190   1.340       .  A
C166        C170   1.464       .  S
C166        H195   1.081       .  S
Co167       N185   2.091   1_565  S
Co167       N175   2.077   1_565  S
Co167       N207   2.073       .  S
Co167       N183   2.085       .  S
Co167      Cl211   2.451   1_655  S
N168        C206   1.341       .  A
N168        N175   1.320       .  A
N168       Co169   2.085   1_645  S
Co169       N172   2.078   1_565  S
Co169       N189   2.073   1_455  S
Co169       N176   2.092       .  S
Co169      Cl211   2.446       .  S
C170        N208   1.349       .  A
C170        C230   1.480       .  S
N171        N178   1.319       .  A
N171        N201   1.322       .  A
N171       Co204   2.075   1_545  S
N172        N190   1.319       .  A
N172        N208   1.323       .  A
N173        C202   1.351       .  A
N173        N183   1.324       .  A
H174        C199   1.081       .  S
N175        N196   1.323       .  A
N176        N194   1.318       .  A
N176        N181   1.326       .  A
C177        N181   1.353       .  A
C177        C205   1.460       .  S
C177        C374   1.484       .  S
N178        C193   1.343       .  A
N178       Co200   2.088   1_445  S
C179        N207   1.339       .  A
C179        C182   1.463       .  S
C179        H213   1.081       .  S
C182        N203   1.355       .  A
C182        C326   1.494       .  S
N183        N189   1.319       .  A
N184        C210   1.339       .  A
N184        N186   1.320       .  A
N184       Co200   2.085   1_455  S
N185        C199   1.341       .  A
N186        N214   1.324       .  A
N186       Co204   2.083       .  S
H187        C210   1.082       .  S
H188        C205   1.082       .  S
N190       Co204   2.084   1_545  S
N191        N203   1.326       .  A
N191        N207   1.318       .  A
N191       Co200   2.097       .  S
C192        N196   1.349       .  A
C192        C206   1.460       .  S
C192        C566   1.475       .  S
C193        C212   1.463       .  S
C193        H197   1.081       .  S
N194        C205   1.340       .  A
N194       Co204   2.076       .  S
C198        N214   1.350       .  A
C198        C210   1.463       .  S
C198        C302   1.482       .  S
Co200      Cl211   2.451   1_655  S
N201        C212   1.348       .  A
C202        C278   1.480       .  S
Co204      Cl211   2.448       .  S
C212        C249   1.481       .  S
C215        C321   1.571       .  S
C215        C513   1.572       .  S
C215        C657   1.567       .  S
C215        C902   1.567       .  S
C216        C254   1.571       .  S
C216        C422   1.581       .  S
C216        C609   1.578       .  S
C216        C974   1.567       .  S
C217        C345   1.573       .  S
C217        C398   1.572       .  S
C217        C758   1.577       .  S
C217        C849   1.573       .  S
C218        C297   1.577       .  S
C218        C446   1.570       .  S
C218        C638   1.575       .  S
C218        C873   1.564       .  S
C219        C225   1.572       .  S
C219        C494   1.570       .  S
C219        C729   1.575       .  S
C219        C830   1.585       .  S
C220        C273   1.568       .  S
C220        C470   1.571       .  S
C220        C705   1.570       .  S
C220        C806   1.570       .  S
C221        C222   1.403       .  A
C221        C226   1.396       .  A
C221        C235   1.445       .  S
C222        C227   1.484       .  S
C222        C223   1.396       .  A
C223        H242   1.086       .  S
C223        C224   1.403       .  A
C224        C225   1.434       .  A
C224        C236   1.443       .  S
C225        C226   1.419       .  A
C226        H241   1.079       .  S
C227        C228   1.402       .  A
C227        C232   1.409       .  A
C228        H243   1.085       .  S
C228        C229   1.397       .  A
C229        C230   1.414       .  A
C229        C233   1.443       .  S
C230        C231   1.406       .  A
C231        H244   1.085       .  S
C231        C232   1.402       .  A
C232        C234   1.444       .  S
C233        N237   1.157       .  T
C234        N238   1.157       .  T
C235        N240   1.157       .  T
C236        N239   1.157       .  T
C245        C246   1.410       .  A
C245        C250   1.402       .  A
C245        C259   1.444       .  S
C246        C251   1.482       .  S
C246        C247   1.400       .  A
C247        H266   1.085       .  S
C247        C248   1.397       .  A
C248        C249   1.417       .  A
C248        C260   1.444       .  S
C249        C250   1.405       .  A
C250        H265   1.084       .  S
C251        C252   1.395       .  A
C251        C256   1.402       .  A
C252        H267   1.085       .  S
C252        C253   1.399       .  A
C253        C254   1.436       .  A
C253        C257   1.443       .  S
C254        C255   1.421       .  A
C255        H268   1.083       .  S
C255        C256   1.398       .  A
C256        C258   1.444       .  S
C257        N261   1.158       .  T
C258        N262   1.157       .  T
C259        N264   1.157       .  T
C260        N263   1.157       .  T
C269        C270   1.403       .  A
C269        C274   1.395       .  A
C269        C283   1.444       .  S
C270        C275   1.478       .  S
C270        C271   1.394       .  A
C271        H290   1.091       .  S
C271        C272   1.399       .  A
C272        C273   1.435       .  A
C272        C284   1.444       .  S
C273        C274   1.417       .  A
C274        H289   1.091       .  S
C275        C276   1.399       .  A
C275        C280   1.408       .  A
C276        H291   1.087       .  S
C276        C277   1.397       .  A
C277        C278   1.417       .  A
C277        C281   1.444       .  S
C278        C279   1.405       .  A
C279        H292   1.086       .  S
C279        C280   1.400       .  A
C280        C282   1.444       .  S
C281        N285   1.158       .  T
C282        N286   1.157       .  T
C283        N288   1.157       .  T
C284        N287   1.158       .  T
C293        C294   1.402       .  A
C293        C298   1.401       .  A
C293        C307   1.445       .  S
C294        C299   1.483       .  S
C294        C295   1.394       .  A
C295        H314   1.085       .  S
C295        C296   1.400       .  A
C296        C297   1.431       .  A
C296        C308   1.440       .  S
C297        C298   1.424       .  A
C298        H313   1.080       .  S
C299        C300   1.402       .  A
C299        C304   1.409       .  A
C300        H315   1.084       .  S
C300        C301   1.401       .  A
C301        C302   1.415       .  A
C301        C305   1.444       .  S
C302        C303   1.405       .  A
C303        H316   1.083       .  S
C303        C304   1.399       .  A
C304        C306   1.444       .  S
C305        N309   1.157       .  T
C306        N310   1.157       .  T
C307        N312   1.157       .  T
C308        N311   1.157       .  T
C317        C318   1.401       .  A
C317        C322   1.399       .  A
C317        C331   1.444       .  S
C318        C323   1.481       .  S
C318        C319   1.396       .  A
C319        H338   1.084       .  S
C319        C320   1.402       .  A
C320        C321   1.432       .  A
C320        C332   1.443       .  S
C321        C322   1.421       .  A
C322        H337   1.080       .  S
C323        C324   1.399       .  A
C323        C328   1.406       .  A
C324        H339   1.085       .  S
C324        C325   1.401       .  A
C325        C326   1.418       .  A
C325        C329   1.443       .  S
C326        C327   1.411       .  A
C327        H340   1.083       .  S
C327        C328   1.402       .  A
C328        C330   1.444       .  S
C329        N333   1.157       .  T
C330        N334   1.157       .  T
C331        N336   1.157       .  T
C332        N335   1.158       .  T
C341        C342   1.406       .  A
C341        C346   1.399       .  A
C341        C355   1.444       .  S
C342        C347   1.488       .  S
C342        C343   1.397       .  A
C343        H362   1.086       .  S
C343        C344   1.398       .  A
C344        C345   1.434       .  A
C344        C356   1.443       .  S
C345        C346   1.417       .  A
C346        H361   1.082       .  S
C347        C348   1.405       .  A
C347        C352   1.414       .  A
C348        H363   1.085       .  S
C348        C349   1.402       .  A
C349        C350   1.410       .  A
C349        C353   1.444       .  S
C350        C351   1.402       .  A
C351        H364   1.085       .  S
C351        C352   1.399       .  A
C352        C354   1.445       .  S
C353        N357   1.157       .  T
C354        N358   1.157       .  T
C355        N360   1.157       .  T
C356        N359   1.157       .  T
C365        C366   1.406       .  A
C365        C370   1.399       .  A
C365        C379   1.445       .  S
C366        C371   1.491       .  S
C366        C367   1.398       .  A
C367        H386   1.085       .  S
C367        C368   1.403       .  A
C368        C369   1.432       .  A
C368        C380   1.443       .  S
C369        C370   1.422       .  A
C370        H385   1.079       .  S
C371        C372   1.405       .  A
C371        C376   1.412       .  A
C372        H387   1.084       .  S
C372        C373   1.403       .  A
C373        C374   1.412       .  A
C373        C377   1.444       .  S
C374        C375   1.406       .  A
C375        H388   1.083       .  S
C375        C376   1.402       .  A
C376        C378   1.445       .  S
C377        N381   1.157       .  T
C378        N382   1.157       .  T
C379        N384   1.157       .  T
C380        N383   1.157       .  T
C389        C390   1.411       .  A
C389        C394   1.404       .  A
C389        C403   1.444       .  S
C390        C395   1.495       .  S
C390        C391   1.404       .  A
C391        H410   1.085       .  S
C391        C392   1.404       .  A
C392        C393   1.415       .  A
C392        C404   1.443       .  S
C393        C394   1.409       .  A
C394        H409   1.083       .  S
C395        C396   1.400       .  A
C395        C400   1.406       .  A
C396        H411   1.087       .  S
C396        C397   1.405       .  A
C397        C398   1.434       .  A
C397        C401   1.444       .  S
C398        C399   1.418       .  A
C399        H412   1.082       .  S
C399        C400   1.401       .  A
C400        C402   1.444       .  S
C401        N405   1.158       .  T
C402        N406   1.157       .  T
C403        N408   1.157       .  T
C404        N407   1.157       .  T
C413        C414   1.409       .  A
C413        C418   1.405       .  A
C413        C427   1.443       .  S
C414        C419   1.488       .  S
C414        C415   1.399       .  A
C415        H434   1.085       .  S
C415        C416   1.401       .  A
C416        C417   1.422       .  A
C416        C428   1.442       .  S
C417        C418   1.408       .  A
C418        H433   1.084       .  S
C419        C420   1.395       .  A
C419        C424   1.404       .  A
C420        H435   1.085       .  S
C420        C421   1.403       .  A
C421        C422   1.434       .  A
C421        C425   1.442       .  S
C422        C423   1.422       .  A
C423        H436   1.079       .  S
C423        C424   1.401       .  A
C424        C426   1.445       .  S
C425        N429   1.157       .  T
C426        N430   1.157       .  T
C427        N432   1.157       .  T
C428        N431   1.158       .  T
C437        C438   1.416       .  A
C437        C442   1.406       .  A
C437        C451   1.444       .  S
C438        C443   1.498       .  S
C438        C439   1.404       .  A
C439        H458   1.085       .  S
C439        C440   1.402       .  A
C440        C441   1.414       .  A
C440        C452   1.443       .  S
C441        C442   1.404       .  A
C442        H457   1.085       .  S
C443        C444   1.402       .  A
C443        C448   1.408       .  A
C444        H459   1.087       .  S
C444        C445   1.405       .  A
C445        C446   1.431       .  A
C445        C449   1.444       .  S
C446        C447   1.415       .  A
C447        H460   1.087       .  S
C447        C448   1.400       .  A
C448        C450   1.444       .  S
C449        N453   1.158       .  T
C450        N454   1.157       .  T
C451        N456   1.157       .  T
C452        N455   1.157       .  T
C461        C462   1.410       .  A
C461        C466   1.402       .  A
C461        C475   1.444       .  S
C462        C467   1.486       .  S
C462        C463   1.404       .  A
C463        H482   1.085       .  S
C463        C464   1.403       .  A
C464        C465   1.411       .  A
C464        C476   1.443       .  S
C465        C466   1.406       .  A
C466        H481   1.085       .  S
C467        C468   1.398       .  A
C467        C472   1.404       .  A
C468        H483   1.084       .  S
C468        C469   1.404       .  A
C469        C470   1.431       .  A
C469        C473   1.444       .  S
C470        C471   1.419       .  A
C471        H484   1.078       .  S
C471        C472   1.398       .  A
C472        C474   1.445       .  S
C473        N477   1.157       .  T
C474        N478   1.157       .  T
C475        N480   1.157       .  T
C476        N479   1.157       .  T
C485        C486   1.413       .  A
C485        C490   1.406       .  A
C485        C499   1.444       .  S
C486        C491   1.493       .  S
C486        C487   1.401       .  A
C487        H506   1.086       .  S
C487        C488   1.400       .  A
C488        C489   1.418       .  A
C488        C500   1.444       .  S
C489        C490   1.408       .  A
C490        H505   1.085       .  S
C491        C492   1.398       .  A
C491        C496   1.406       .  A
C492        H507   1.086       .  S
C492        C493   1.404       .  A
C493        C494   1.436       .  A
C493        C497   1.442       .  S
C494        C495   1.421       .  A
C495        H508   1.085       .  S
C495        C496   1.400       .  A
C496        C498   1.443       .  S
C497        N501   1.158       .  T
C498        N502   1.157       .  T
C499        N504   1.157       .  T
C500        N503   1.157       .  T
C509        C510   1.407       .  A
C509        C514   1.399       .  A
C509        C523   1.445       .  S
C510        C515   1.493       .  S
C510        C511   1.400       .  A
C511        H530   1.085       .  S
C511        C512   1.403       .  A
C512        C513   1.430       .  A
C512        C524   1.444       .  S
C513        C514   1.419       .  A
C514        H529   1.078       .  S
C515        C516   1.406       .  A
C515        C520   1.414       .  A
C516        H531   1.085       .  S
C516        C517   1.403       .  A
C517        C518   1.411       .  A
C517        C521   1.444       .  S
C518        C519   1.404       .  A
C519        H532   1.085       .  S
C519        C520   1.401       .  A
C520        C522   1.445       .  S
C521        N525   1.157       .  T
C522        N526   1.157       .  T
C523        N528   1.157       .  T
C524        N527   1.158       .  T
C533        C534   1.413       .  A
C533        C538   1.397       .  A
C533        C547   1.446       .  S
C534        C539   1.489       .  S
C534        C535   1.406       .  A
C535        H554   1.083       .  S
C535        C536   1.403       .  A
C536        C537   1.410       .  A
C536        C548   1.443       .  S
C537        C538   1.403       .  A
C538        H553   1.084       .  S
C539        C540   1.398       .  A
C539        C544   1.406       .  A
C540        H555   1.085       .  S
C540        C541   1.399       .  A
C541        C542   1.432       .  A
C541        C545   1.443       .  S
C542        C543   1.422       .  A
C543        H556   1.083       .  S
C543        C544   1.400       .  A
C544        C546   1.444       .  S
C545        N549   1.158       .  T
C546        N550   1.157       .  T
C547        N552   1.157       .  T
C548        N551   1.157       .  T
C557        C558   1.403       .  A
C557        C562   1.399       .  A
C557        C571   1.444       .  S
C558        C563   1.481       .  S
C558        C559   1.394       .  A
C559        H578   1.085       .  S
C559        C560   1.401       .  A
C560        C561   1.433       .  A
C560        C572   1.442       .  S
C561        C562   1.420       .  A
C562        H577   1.079       .  S
C563        C564   1.403       .  A
C563        C568   1.408       .  A
C564        H579   1.084       .  S
C564        C565   1.401       .  A
C565        C566   1.410       .  A
C565        C569   1.444       .  S
C566        C567   1.405       .  A
C567        H580   1.084       .  S
C567        C568   1.400       .  A
C568        C570   1.444       .  S
C569        N573   1.157       .  T
C570        N574   1.157       .  T
C571        N576   1.157       .  T
C572        N575   1.157       .  T
C581        C582   1.410       .  A
C581        C586   1.398       .  A
C581        C595   1.444       .  S
C582        C587   1.491       .  S
C582        C583   1.406       .  A
C583        H602   1.084       .  S
C583        C584   1.406       .  A
C584        C585   1.415       .  A
C584        C596   1.444       .  S
C585        C586   1.406       .  A
C586        H601   1.084       .  S
C587        C588   1.397       .  A
C587        C592   1.403       .  A
C588        H603   1.088       .  S
C588        C589   1.403       .  A
C589        C590   1.436       .  A
C589        C593   1.442       .  S
C590        C591   1.424       .  A
C591        H604   1.086       .  S
C591        C592   1.401       .  A
C592        C594   1.444       .  S
C593        N597   1.158       .  T
C594        N598   1.157       .  T
C595        N600   1.157       .  T
C596        N599   1.158       .  T
C605        C606   1.404       .  A
C605        C610   1.397       .  A
C605        C619   1.445       .  S
C606        C611   1.485       .  S
C606        C607   1.397       .  A
C607        H626   1.085       .  S
C607        C608   1.402       .  A
C608        C609   1.432       .  A
C608        C620   1.445       .  S
C609        C610   1.421       .  A
C610        H625   1.078       .  S
C611        C612   1.405       .  A
C611        C616   1.410       .  A
C612        H627   1.085       .  S
C612        C613   1.404       .  A
C613        C614   1.411       .  A
C613        C617   1.444       .  S
C614        C615   1.404       .  A
C615        H628   1.085       .  S
C615        C616   1.397       .  A
C616        C618   1.444       .  S
C617        N621   1.157       .  T
C618        N622   1.157       .  T
C619        N624   1.157       .  T
C620        N623   1.157       .  T
C629        C630   1.416       .  A
C629        C634   1.404       .  A
C629        C643   1.444       .  S
C630        C635   1.494       .  S
C630        C631   1.405       .  A
C631        H650   1.083       .  S
C631        C632   1.398       .  A
C632        C633   1.410       .  A
C632        C644   1.444       .  S
C633        C634   1.403       .  A
C634        H649   1.083       .  S
C635        C636   1.399       .  A
C635        C640   1.409       .  A
C636        H651   1.084       .  S
C636        C637   1.403       .  A
C637        C638   1.437       .  A
C637        C641   1.446       .  S
C638        C639   1.414       .  A
C639        H652   1.079       .  S
C639        C640   1.398       .  A
C640        C642   1.444       .  S
C641        N645   1.158       .  T
C642        N646   1.157       .  T
C643        N648   1.157       .  T
C644        N647   1.157       .  T
C653        C654   1.404       .  A
C653        C658   1.398       .  A
C653        C667   1.445       .  S
C654        C659   1.481       .  S
C654        C655   1.395       .  A
C655        H674   1.085       .  S
C655        C656   1.400       .  A
C656        C657   1.432       .  A
C656        C668   1.444       .  S
C657        C658   1.420       .  A
C658        H673   1.079       .  S
C659        C660   1.402       .  A
C659        C664   1.409       .  A
C660        H675   1.085       .  S
C660        C661   1.399       .  A
C661        C662   1.410       .  A
C661        C665   1.444       .  S
C662        C663   1.406       .  A
C663        H676   1.085       .  S
C663        C664   1.401       .  A
C664        C666   1.445       .  S
C665        N669   1.157       .  T
C666        N670   1.157       .  T
C667        N672   1.157       .  T
C668        N671   1.157       .  T
C677        C678   1.403       .  A
C677        C682   1.399       .  A
C677        C691   1.445       .  S
C678        C683   1.482       .  S
C678        C679   1.394       .  A
C679        H698   1.085       .  S
C679        C680   1.400       .  A
C680        C681   1.435       .  A
C680        C692   1.443       .  S
C681        C682   1.421       .  A
C682        H697   1.076       .  S
C683        C684   1.404       .  A
C683        C688   1.409       .  A
C684        H699   1.085       .  S
C684        C685   1.402       .  A
C685        C686   1.411       .  A
C685        C689   1.444       .  S
C686        C687   1.405       .  A
C687        H700   1.085       .  S
C687        C688   1.397       .  A
C688        C690   1.445       .  S
C689        N693   1.157       .  T
C690        N694   1.157       .  T
C691        N696   1.157       .  T
C692        N695   1.157       .  T
C701        C702   1.404       .  A
C701        C706   1.398       .  A
C701        C715   1.445       .  S
C702        C707   1.485       .  S
C702        C703   1.397       .  A
C703        H722   1.085       .  S
C703        C704   1.403       .  A
C704        C705   1.432       .  A
C704        C716   1.444       .  S
C705        C706   1.419       .  A
C706        H721   1.078       .  S
C707        C708   1.404       .  A
C707        C712   1.410       .  A
C708        H723   1.085       .  S
C708        C709   1.403       .  A
C709        C710   1.414       .  A
C709        C713   1.444       .  S
C710        C711   1.404       .  A
C711        H724   1.085       .  S
C711        C712   1.398       .  A
C712        C714   1.444       .  S
C713        N717   1.158       .  T
C714        N718   1.157       .  T
C715        N720   1.157       .  T
C716        N719   1.158       .  T
C725        C726   1.402       .  A
C725        C730   1.397       .  A
C725        C739   1.444       .  S
C726        C731   1.484       .  S
C726        C727   1.396       .  A
C727        H746   1.087       .  S
C727        C728   1.401       .  A
C728        C729   1.435       .  A
C728        C740   1.443       .  S
C729        C730   1.422       .  A
C730        H745   1.085       .  S
C731        C732   1.402       .  A
C731        C736   1.410       .  A
C732        H747   1.085       .  S
C732        C733   1.401       .  A
C733        C734   1.415       .  A
C733        C737   1.443       .  S
C734        C735   1.406       .  A
C735        H748   1.085       .  S
C735        C736   1.399       .  A
C736        C738   1.444       .  S
C737        N741   1.158       .  T
C738        N742   1.157       .  T
C739        N744   1.157       .  T
C740        N743   1.158       .  T
C749        C750   1.410       .  A
C749        C754   1.404       .  A
C749        C763   1.443       .  S
C750        C755   1.495       .  S
C750        C751   1.403       .  A
C751        H770   1.084       .  S
C751        C752   1.404       .  A
C752        C753   1.420       .  A
C752        C764   1.445       .  S
C753        C754   1.408       .  A
C754        H769   1.082       .  S
C755        C756   1.400       .  A
C755        C760   1.404       .  A
C756        H771   1.085       .  S
C756        C757   1.405       .  A
C757        C758   1.430       .  A
C757        C761   1.441       .  S
C758        C759   1.423       .  A
C759        H772   1.081       .  S
C759        C760   1.402       .  A
C760        C762   1.444       .  S
C761        N765   1.157       .  T
C762        N766   1.157       .  T
C763        N768   1.157       .  T
C764        N767   1.158       .  T
C773        C774   1.412       .  A
C773        C778   1.404       .  A
C773        C787   1.443       .  S
C774        C779   1.494       .  S
C774        C775   1.404       .  A
C775        H794   1.085       .  S
C775        C776   1.402       .  A
C776        C777   1.417       .  A
C776        C788   1.444       .  S
C777        C778   1.406       .  A
C778        H793   1.084       .  S
C779        C780   1.396       .  A
C779        C784   1.407       .  A
C780        H795   1.085       .  S
C780        C781   1.403       .  A
C781        C782   1.437       .  A
C781        C785   1.442       .  S
C782        C783   1.421       .  A
C783        H796   1.083       .  S
C783        C784   1.403       .  A
C784        C786   1.444       .  S
C785        N789   1.158       .  T
C786        N790   1.157       .  T
C787        N792   1.157       .  T
C788        N791   1.158       .  T
C797        C798   1.406       .  A
C797        C802   1.400       .  A
C797        C811   1.444       .  S
C798        C803   1.477       .  S
C798        C799   1.399       .  A
C799        H818   1.084       .  S
C799        C800   1.399       .  A
C800        C801   1.419       .  A
C800        C812   1.444       .  S
C801        C802   1.407       .  A
C802        H817   1.082       .  S
C803        C804   1.395       .  A
C803        C808   1.401       .  A
C804        H819   1.088       .  S
C804        C805   1.400       .  A
C805        C806   1.434       .  A
C805        C809   1.444       .  S
C806        C807   1.419       .  A
C807        H820   1.086       .  S
C807        C808   1.397       .  A
C808        C810   1.443       .  S
C809        N813   1.158       .  T
C810        N814   1.157       .  T
C811        N816   1.157       .  T
C812        N815   1.158       .  T
C821        C822   1.414       .  A
C821        C826   1.403       .  A
C821        C835   1.444       .  S
C822        C827   1.491       .  S
C822        C823   1.403       .  A
C823        H842   1.085       .  S
C823        C824   1.399       .  A
C824        C825   1.415       .  A
C824        C836   1.444       .  S
C825        C826   1.403       .  A
C826        H841   1.085       .  S
C827        C828   1.398       .  A
C827        C832   1.406       .  A
C828        H843   1.085       .  S
C828        C829   1.403       .  A
C829        C830   1.432       .  A
C829        C833   1.442       .  S
C830        C831   1.422       .  A
C831        H844   1.080       .  S
C831        C832   1.399       .  A
C832        C834   1.445       .  S
C833        N837   1.157       .  T
C834        N838   1.157       .  T
C835        N840   1.157       .  T
C836        N839   1.157       .  T
C845        C846   1.402       .  A
C845        C850   1.399       .  A
C845        C859   1.444       .  S
C846        C851   1.488       .  S
C846        C847   1.398       .  A
C847        H866   1.086       .  S
C847        C848   1.407       .  A
C848        C849   1.434       .  A
C848        C860   1.441       .  S
C849        C850   1.422       .  A
C850        H865   1.083       .  S
C851        C852   1.403       .  A
C851        C856   1.410       .  A
C852        H867   1.084       .  S
C852        C853   1.404       .  A
C853        C854   1.414       .  A
C853        C857   1.443       .  S
C854        C855   1.406       .  A
C855        H868   1.083       .  S
C855        C856   1.401       .  A
C856        C858   1.443       .  S
C857        N861   1.157       .  T
C858        N862   1.157       .  T
C859        N864   1.157       .  T
C860        N863   1.158       .  T
C869        C870   1.401       .  A
C869        C874   1.394       .  A
C869        C883   1.444       .  S
C870        C875   1.479       .  S
C870        C871   1.397       .  A
C871        H890   1.086       .  S
C871        C872   1.401       .  A
C872        C873   1.432       .  A
C872        C884   1.440       .  S
C873        C874   1.421       .  A
C874        H889   1.082       .  S
C875        C876   1.401       .  A
C875        C880   1.410       .  A
C876        H891   1.084       .  S
C876        C877   1.397       .  A
C877        C878   1.415       .  A
C877        C881   1.444       .  S
C878        C879   1.403       .  A
C879        H892   1.083       .  S
C879        C880   1.399       .  A
C880        C882   1.444       .  S
C881        N885   1.157       .  T
C882        N886   1.157       .  T
C883        N888   1.157       .  T
C884        N887   1.157       .  T
C893        C894   1.408       .  A
C893        C898   1.400       .  A
C893        C907   1.444       .  S
C894        C899   1.474       .  S
C894        C895   1.399       .  A
C895        H914   1.086       .  S
C895        C896   1.397       .  A
C896        C897   1.414       .  A
C896        C908   1.444       .  S
C897        C898   1.404       .  A
C898        H913   1.085       .  S
C899        C900   1.394       .  A
C899        C904   1.400       .  A
C900        H915   1.085       .  S
C900        C901   1.400       .  A
C901        C902   1.434       .  A
C901        C905   1.444       .  S
C902        C903   1.419       .  A
C903        H916   1.080       .  S
C903        C904   1.395       .  A
C904        C906   1.444       .  S
C905        N909   1.158       .  T
C906        N910   1.157       .  T
C907        N912   1.157       .  T
C908        N911   1.157       .  T
C917        C918   1.410       .  A
C917        C922   1.399       .  A
C917        C931   1.444       .  S
C918        C923   1.488       .  S
C918        C919   1.404       .  A
C919        H938   1.084       .  S
C919        C920   1.405       .  A
C920        C921   1.415       .  A
C920        C932   1.444       .  S
C921        C922   1.405       .  A
C922        H937   1.084       .  S
C923        C924   1.396       .  A
C923        C928   1.404       .  A
C924        H939   1.085       .  S
C924        C925   1.404       .  A
C925        C926   1.434       .  A
C925        C929   1.442       .  S
C926        C927   1.422       .  A
C927        H940   1.080       .  S
C927        C928   1.401       .  A
C928        C930   1.444       .  S
C929        N933   1.157       .  T
C930        N934   1.157       .  T
C931        N936   1.157       .  T
C932        N935   1.158       .  T
C941        C942   1.407       .  A
C941        C946   1.398       .  A
C941        C955   1.445       .  S
C942        C947   1.480       .  S
C942        C943   1.400       .  A
C943        H962   1.085       .  S
C943        C944   1.401       .  A
C944        C945   1.417       .  A
C944        C956   1.443       .  S
C945        C946   1.408       .  A
C946        H961   1.084       .  S
C947        C948   1.395       .  A
C947        C952   1.400       .  A
C948        H963   1.086       .  S
C948        C949   1.399       .  A
C949        C950   1.437       .  A
C949        C953   1.444       .  S
C950        C951   1.422       .  A
C951        H964   1.084       .  S
C951        C952   1.397       .  A
C952        C954   1.444       .  S
C953        N957   1.158       .  T
C954        N958   1.157       .  T
C955        N960   1.157       .  T
C956        N959   1.158       .  T
C965        C966   1.412       .  A
C965        C970   1.400       .  A
C965        C979   1.444       .  S
C966        C971   1.488       .  S
C966        C967   1.403       .  A
C967        H986   1.085       .  S
C967        C968   1.402       .  A
C968        C969   1.415       .  A
C968        C980   1.444       .  S
C969        C970   1.404       .  A
C970        H985   1.085       .  S
C971        C972   1.397       .  A
C971        C976   1.406       .  A
C972        H987   1.085       .  S
C972        C973   1.402       .  A
C973        C974   1.434       .  A
C973        C977   1.445       .  S
C974        C975   1.417       .  A
C975        H988   1.079       .  S
C975        C976   1.399       .  A
C976        C978   1.444       .  S
C977        N981   1.158       .  T
C978        N982   1.157       .  T
C979        N984   1.157       .  T
C980        N983   1.157       .  T
