geometry optimzed in LAMMPS
_audit_creation_date              2020-11-30 
_audit_creation_method            'lammps2cif' 
_symmetry_space_group_name_H-M    'P1' 
_symmetry_Int_Tables_number       1 
_symmetry_cell_setting            triclinic 
loop_ 
_symmetry_equiv_pos_as_xyz 
  x,y,z 
_cell_length_a                    40.47123089 
_cell_length_b                    40.34624392451863 
_cell_length_c                    40.31061408373675 
_cell_angle_alpha                 89.89053421200435 
_cell_angle_beta                  90.00944975091302 
_cell_angle_gamma                 89.97541402987186 
loop_ 
_atom_site_label 
_atom_site_type_symbol 
_atom_site_fract_x 
_atom_site_fract_y 
_atom_site_fract_z 
_atom_site_charge 
O1          O  0.91959454  0.83887323  0.62164091    -0.82500
C2          C  0.80592912  0.87687291  0.69446118     0.96800
O3          O  0.83502512  0.88680686  0.70003705    -0.71600
O4          O  0.87326647  0.83569218  0.70611948    -0.75200
Al5        Al  0.87638791  0.87434624  0.68024223     1.49000
C6          C  0.88272371  0.80687769  0.69916540     0.92100
O7          O  0.83851634  0.79291364  0.63355147    -0.81500
O8          O  0.84363778  0.87658731  0.58446408    -0.75000
Al9        Al  0.87781446  0.81806215  0.62826940     1.90100
O10         O  0.80412580  0.82929111  0.61344608    -0.74100
O11         O  0.83246240  0.91596364  0.63510555    -0.73900
O12         O  0.79829462  0.86618099  0.66612117    -0.79600
O13         O  0.88108308  0.91591550  0.65834612    -0.77800
O14         O  0.85919388  0.85451728  0.64481221    -1.13900
O15         O  0.92116334  0.86567840  0.66864083    -0.73100
C16         C  0.93570856  0.85465301  0.64329995     0.97600
C17         C  0.81009404  0.80017285  0.62315369     0.94000
Al18       Al  0.82275820  0.87076444  0.62630224     1.55600
O19         O  0.89103317  0.79973935  0.66986884    -0.77800
C20         C  0.85777332  0.93144715  0.64448676     0.98200
C21         C  0.85840456  0.85417857  0.56835100     0.93000
O22         O  0.86831858  0.82832949  0.58296527    -0.83100
O23         O  0.67145340  0.87963463  0.91165238    -0.82500
C24         C  0.63600558  0.80742676  0.79689395     0.96800
O25         O  0.62762342  0.80089910  0.82625629    -0.71600
O26         O  0.68001867  0.79650685  0.86292604    -0.75200
Al27       Al  0.64010952  0.82013879  0.86731023     1.49000
C28         C  0.70808680  0.80483290  0.87355660     0.92100
O29         O  0.71882426  0.87240455  0.83061296    -0.81500
O30         O  0.63316697  0.91609705  0.83502441    -0.75000
Al31       Al  0.69305507  0.87515204  0.86983213     1.90100
O32         O  0.68126357  0.88892065  0.79503956    -0.74100
O33         O  0.59540975  0.86453040  0.82475630    -0.73900
O34         O  0.64591999  0.83591361  0.78913449    -0.79600
O35         O  0.59785928  0.83982176  0.87310591    -0.77800
O36         O  0.65776589  0.85688733  0.85049890    -1.13900
O37         O  0.64886124  0.83058327  0.91216064    -0.73100
C38         C  0.65764302  0.85630392  0.92732799     0.97600
C39         C  0.71077322  0.88151695  0.80183423     0.94000
Al40       Al  0.64034863  0.87494942  0.81413877     1.55600
O41         O  0.71345749  0.83426165  0.88258195    -0.77800
C42         C  0.58120595  0.85341706  0.85038389     0.98200
C43         C  0.65445381  0.93308715  0.85019088     0.93000
O44         O  0.68055328  0.91980337  0.86093810    -0.83100
O45         O  0.91860434  0.66688575  0.87229481    -0.82500
C46         C  0.80840715  0.62830564  0.79453453     0.96800
O47         O  0.83820275  0.62101323  0.78887906    -0.71600
O48         O  0.87571028  0.67275644  0.78665968    -0.75200
Al49       Al  0.87846894  0.63308839  0.81084042     1.49000
C50         C  0.88407592  0.70129917  0.79566707     0.92100
O51         O  0.83708298  0.71103106  0.86118711    -0.81500
O52         O  0.84169125  0.62584032  0.90614711    -0.75000
Al53       Al  0.87660169  0.68664618  0.86573241     1.90100
O54         O  0.80242835  0.67272331  0.87680942    -0.74100
O55         O  0.83464393  0.58764931  0.85393939    -0.73900
O56         O  0.79917617  0.63682064  0.82311553    -0.79600
O57         O  0.88339369  0.59097525  0.83068481    -0.77800
O58         O  0.85938751  0.65057782  0.84676468    -1.13900
O59         O  0.92279435  0.64186726  0.82433275    -0.73100
C60         C  0.93588574  0.65261192  0.85057690     0.97600
C61         C  0.80856485  0.70262857  0.87037065     0.94000
Al62       Al  0.82274652  0.63225462  0.86351526     1.55600
O63         O  0.89009749  0.70761285  0.82564243    -0.77800
C64         C  0.86079710  0.57404029  0.84380106     0.98200
C65         C  0.85495666  0.64814059  0.92350178     0.93000
O66         O  0.86635766  0.67399878  0.91008363    -0.83100
O67         O  0.66444858  0.63181128  0.58446771    -0.82500
C68         C  0.63220163  0.70077395  0.70158421     0.96800
O69         O  0.62157592  0.70737464  0.67290913    -0.71600
O70         O  0.67331434  0.71415217  0.63511451    -0.75200
Al71       Al  0.63368821  0.68970003  0.63080439     1.49000
C72         C  0.70118607  0.70639531  0.62357944     0.92100
O73         O  0.71414873  0.63798859  0.66401266    -0.81500
O74         O  0.62895636  0.59296476  0.66102536    -0.75000
Al75       Al  0.68726565  0.63562821  0.62554811     1.90100
O76         O  0.67819299  0.61937672  0.69984285    -0.74100
O77         O  0.59105481  0.64395789  0.67349255    -0.73900
O78         O  0.64279650  0.67221721  0.70803087    -0.79600
O79         O  0.59207700  0.66891639  0.62533162    -0.77800
O80         O  0.65241727  0.65283650  0.64617666    -1.13900
O81         O  0.64169233  0.68082101  0.58519081    -0.73100
C82         C  0.65049719  0.65543703  0.56936707     0.97600
C83         C  0.70748210  0.62722834  0.69260614     0.94000
Al84       Al  0.63647204  0.63370238  0.68253401     1.55600
O85         O  0.70661663  0.67727426  0.61340249    -0.77800
C86         C  0.57612446  0.65433481  0.64790869     0.98200
C87         C  0.65042083  0.57629154  0.64582851     0.93000
O88         O  0.67572263  0.59024070  0.63382086    -0.83100
O89         O  0.88067073  0.16672261  0.58520412    -0.82500
C90         C  0.80787699  0.12768365  0.69802486     0.96800
O91         O  0.80217290  0.11882502  0.66854928    -0.71600
O92         O  0.79584460  0.17134095  0.63153180    -0.75200
Al93       Al  0.82150166  0.13226920  0.62740739     1.49000
C94         C  0.80322864  0.19988785  0.62130620     0.92100
O95         O  0.86888177  0.21244806  0.66591209    -0.81500
O96         O  0.91714487  0.12862516  0.66028064    -0.75000
Al97       Al  0.87387962  0.18764418  0.62661208     1.90100
O98         O  0.88856701  0.17537118  0.70021346    -0.74100
O99         O  0.86679758  0.08894281  0.67052308    -0.73900
O100        O  0.83603588  0.13838079  0.70590220    -0.79600
O101        O  0.84315179  0.09107816  0.62172115    -0.77800
O102        O  0.85707537  0.15125964  0.64497717    -1.13900
O103        O  0.83280540  0.14161184  0.58240065    -0.73100
C104        C  0.85893068  0.15169165  0.56863993     0.97600
C105        C  0.88028932  0.20487819  0.69395428     0.94000
Al106      Al  0.87557826  0.13414473  0.68120282     1.55600
O107        O  0.83260254  0.20635286  0.61293757    -0.77800
C108        C  0.85742022  0.07480553  0.64430063     0.98200
C109        C  0.93327132  0.15155037  0.64637972     0.93000
O110        O  0.91875382  0.17739363  0.63650461    -0.83100
O111        O  0.88041266  0.33893883  0.90845270    -0.82500
C112        C  0.80955550  0.37682042  0.79419058     0.96800
O113        O  0.80357440  0.38649941  0.82338812    -0.71600
O114        O  0.79704886  0.33433065  0.86053309    -0.75200
Al115      Al  0.82219255  0.37335590  0.86509360     1.49000
C116        C  0.80409135  0.30564566  0.87054368     0.92100
O117        O  0.87091336  0.29342680  0.82779278    -0.81500
O118        O  0.91762180  0.37803386  0.83391580    -0.75000
Al119      Al  0.87484709  0.31821855  0.86701626     1.90100
O120        O  0.89123363  0.33027379  0.79377653    -0.74100
O121        O  0.86662046  0.41640770  0.82198432    -0.73900
O122        O  0.83777398  0.36582913  0.78693217    -0.79600
O123        O  0.84366493  0.41468573  0.87095400    -0.77800
O124        O  0.85805891  0.35438282  0.84827160    -1.13900
O125        O  0.83251267  0.36405489  0.91043808    -0.73100
C126        C  0.85803191  0.35309878  0.92477626     0.97600
C127        C  0.88258000  0.30087388  0.79989357     0.94000
Al128      Al  0.87677825  0.37134332  0.81216540     1.55600
O129        O  0.83328468  0.29898671  0.87952100    -0.77800
C130        C  0.85712169  0.43102021  0.84797026     0.98200
C131        C  0.93393432  0.35561837  0.84844702     0.93000
O132        O  0.91991982  0.32940690  0.85824970    -0.83100
O133        O  0.62976264  0.16839647  0.90648001    -0.82500
C134        C  0.69933547  0.12777072  0.79213299     0.96800
O135        O  0.70531899  0.11890837  0.82159248    -0.71600
O136        O  0.71340969  0.17128398  0.85838707    -0.75200
Al137      Al  0.68710564  0.13275662  0.86305422     1.49000
C138        C  0.70655458  0.19996658  0.86853704     0.92100
O139        O  0.63937589  0.21392011  0.82504645    -0.81500
O140        O  0.59091479  0.13058379  0.83186617    -0.75000
Al141      Al  0.63546296  0.18900236  0.86461157     1.90100
O142        O  0.61964379  0.17663573  0.79085528    -0.74100
O143        O  0.64066625  0.09040938  0.82094370    -0.73900
O144        O  0.67128536  0.13895436  0.78450434    -0.79600
O145        O  0.66477180  0.09198927  0.86934196    -0.77800
O146        O  0.65153677  0.15242736  0.84597860    -1.13900
O147        O  0.67713193  0.14238653  0.90833703    -0.73100
C148        C  0.65176601  0.15336206  0.92276725     0.97600
C149        C  0.62847822  0.20590815  0.79694785     0.94000
Al150      Al  0.63218546  0.13548089  0.81011189     1.55600
O151        O  0.67732179  0.20717734  0.87681169    -0.77800
C152        C  0.65032821  0.07584662  0.84683918     0.98200
C153        C  0.57525311  0.15326829  0.84651181     0.93000
O154        O  0.59025932  0.17892500  0.85622136    -0.83100
O155        O  0.63235059  0.34426324  0.58260075    -0.82500
C156        C  0.70223280  0.37892952  0.69875954     0.96800
O157        O  0.70862243  0.38835126  0.66965045    -0.71600
O158        O  0.71499595  0.33558046  0.63303908    -0.75200
Al159      Al  0.69057534  0.37525919  0.62805394     1.49000
C160        C  0.70766877  0.30766847  0.62118253     0.92100
O161        O  0.63986682  0.29513992  0.66215189    -0.81500
O162        O  0.59366785  0.37943650  0.65908961    -0.75000
Al163      Al  0.63686600  0.32149294  0.62367356     1.90100
O164        O  0.62198180  0.33128188  0.69827497    -0.74100
O165        O  0.64432178  0.41839343  0.66966505    -0.73900
O166        O  0.67393705  0.36816349  0.70580429    -0.79600
O167        O  0.66973718  0.41683402  0.62179800    -0.77800
O168        O  0.65396811  0.35668116  0.64392443    -1.13900
O169        O  0.68147285  0.36647260  0.58273963    -0.73100
C170        C  0.65582466  0.35807705  0.56725872     0.97600
C171        C  0.63008260  0.30195859  0.69096054     0.94000
Al172      Al  0.63502578  0.37307025  0.68014959     1.55600
O173        O  0.67856438  0.30216666  0.61107930    -0.77800
C174        C  0.65481731  0.43301956  0.64392540     0.98200
C175        C  0.57712971  0.35751088  0.64436439     0.93000
O176        O  0.59154787  0.33242620  0.63240647    -0.83100
O177        O  0.16793853  0.91573061  0.62241041    -0.82500
C178        C  0.13324848  0.80087799  0.69363635     0.96800
O179        O  0.12299790  0.82979631  0.69956581    -0.71600
O180        O  0.17430208  0.86789355  0.70695470    -0.75200
Al181      Al  0.13531371  0.87148745  0.68108290     1.49000
C182        C  0.20237648  0.87943419  0.69998646     0.92100
O183        O  0.21713236  0.83692771  0.63466007    -0.81500
O184        O  0.13411795  0.84040155  0.58451389    -0.75000
Al185      Al  0.19079159  0.87530266  0.62925509     1.90100
O186        O  0.18186038  0.80155010  0.61399905    -0.74100
O187        O  0.09378050  0.82835337  0.63400147    -0.73900
O188        O  0.14394412  0.79377188  0.66524366    -0.79600
O189        O  0.09433742  0.87644383  0.65894637    -0.77800
O190        O  0.15509568  0.85531305  0.64535784    -1.13900
O191        O  0.14334144  0.91674609  0.67063792    -0.73100
C192        C  0.15269022  0.93147830  0.64460516     0.97600
C193        C  0.21075444  0.80841688  0.62373954     0.94000
Al194      Al  0.13958182  0.81898950  0.62600627     1.55600
O195        O  0.20818378  0.88956969  0.67093407    -0.77800
C196        C  0.07882412  0.85406707  0.64363661     0.98200
C197        C  0.15672674  0.85524913  0.56889819     0.93000
O198        O  0.18189880  0.86543982  0.58411853    -0.83100
O199        O  0.34547722  0.91788075  0.86918096    -0.82500
C200        C  0.38241877  0.80407989  0.79667847     0.96800
O201        O  0.39110290  0.83339780  0.79045091    -0.71600
O202        O  0.33962158  0.87166837  0.78518982    -0.75200
Al203      Al  0.37921889  0.87451370  0.81017466     1.49000
C204        C  0.31112079  0.88092408  0.79357957     0.92100
O205        O  0.29943094  0.83634597  0.86082526    -0.81500
O206        O  0.38388639  0.84184595  0.90691775    -0.75000
Al207      Al  0.32467129  0.87587582  0.86405253     1.90100
O208        O  0.33696328  0.80166403  0.87857622    -0.74100
O209        O  0.42289410  0.83140091  0.85557964    -0.73900
O210        O  0.37324042  0.79598246  0.82547627    -0.79600
O211        O  0.42137949  0.87938037  0.83065655    -0.77800
O212        O  0.36063347  0.85718849  0.84646648    -1.13900
O213        O  0.37109102  0.91915591  0.82158397    -0.73100
C214        C  0.36070880  0.93386561  0.84698305     0.97600
C215        C  0.30729518  0.80805670  0.87146892     0.94000
Al216      Al  0.37787542  0.82091517  0.86503277     1.55600
O217        O  0.30483721  0.88837199  0.82321798    -0.77800
C218        C  0.43765443  0.85682231  0.84490202     0.98200
C219        C  0.36155203  0.85626319  0.92332127     0.93000
O220        O  0.33611297  0.86707169  0.90882645    -0.83100
O221        O  0.16922504  0.59323249  0.87505039    -0.82500
C222        C  0.13461378  0.70758882  0.80262548     0.96800
O223        O  0.12468350  0.67853054  0.79681396    -0.71600
O224        O  0.17557396  0.63962010  0.79077862    -0.75200
Al225      Al  0.13627077  0.63699784  0.81616698     1.49000
C226        C  0.20387158  0.62893946  0.79847377     0.92100
O227        O  0.21697786  0.67323304  0.86547519    -0.81500
O228        O  0.13205904  0.66986749  0.91145475    -0.75000
Al229      Al  0.19090320  0.63448344  0.86945997     1.90100
O230        O  0.18111550  0.70870035  0.88441759    -0.74100
O231        O  0.09428280  0.68193889  0.86021913    -0.73900
O232        O  0.14554446  0.71541000  0.83078974    -0.79600
O233        O  0.09459072  0.63281168  0.83768070    -0.77800
O234        O  0.15554317  0.65395967  0.85200424    -1.13900
O235        O  0.14410314  0.59165403  0.82708150    -0.73100
C236        C  0.15504575  0.57702516  0.85248504     0.97600
C237        C  0.21034818  0.70181526  0.87594922     0.94000
Al238      Al  0.13953179  0.69083761  0.87022410     1.55600
O239        O  0.21006038  0.62121142  0.82816248    -0.77800
C240        C  0.07895265  0.65630878  0.85117360     0.98200
C241        C  0.15336671  0.65445637  0.92823155     0.93000
O242        O  0.17934664  0.64372966  0.91448341    -0.83100
O243        O  0.34010574  0.59040286  0.62098089    -0.82500
C244        C  0.38041234  0.70268472  0.69490625     0.96800
O245        O  0.38706519  0.67285865  0.70114484    -0.71600
O246        O  0.33377858  0.63706608  0.70513851    -0.75200
Al247      Al  0.37374477  0.63231098  0.68115960     1.49000
C248        C  0.30519363  0.62841363  0.69634489     0.92100
O249        O  0.29706968  0.67312948  0.62894907    -0.81500
O250        O  0.38190663  0.66583515  0.58446341    -0.75000
Al251      Al  0.32074203  0.63298555  0.62586213     1.90100
O252        O  0.33585261  0.70739010  0.61297478    -0.74100
O253        O  0.41994246  0.67373832  0.63664857    -0.73900
O254        O  0.37152639  0.71099879  0.66610533    -0.79600
O255        O  0.41597877  0.62578445  0.66191079    -0.77800
O256        O  0.35685615  0.65038921  0.64438254    -1.13900
O257        O  0.36408841  0.58766099  0.66957131    -0.73100
C258        C  0.35405396  0.57375025  0.64349995     0.97600
C259        C  0.30613018  0.70162005  0.62016971     0.94000
Al260      Al  0.37575818  0.68627572  0.62652096     1.55600
O261        O  0.29938328  0.62096805  0.66653840    -0.77800
C262        C  0.43324052  0.64795246  0.64829214     0.98200
C263        C  0.36006448  0.65128164  0.56754581     0.93000
O264        O  0.33373436  0.64147311  0.58111246    -0.83100
O265        O  0.09234852  0.16418959  0.62485699    -0.82500
C266        C  0.20529683  0.12527802  0.69741161     0.96800
O267        O  0.17584777  0.11744829  0.70337820    -0.71600
O268        O  0.14212490  0.17239953  0.70819490    -0.75200
Al269      Al  0.13541545  0.13249352  0.68452460     1.49000
C270        C  0.13184183  0.20065016  0.69951770     0.92100
O271        O  0.17354039  0.21021485  0.63210115    -0.81500
O272        O  0.16744111  0.12553902  0.58716503    -0.75000
Al273      Al  0.13406757  0.18528338  0.62942176     1.90100
O274        O  0.20856150  0.17186113  0.61639556    -0.74100
O275        O  0.17503955  0.08660026  0.63862367    -0.73900
O276        O  0.21319820  0.13489083  0.66874335    -0.79600
O277        O  0.12741898  0.09105513  0.66438395    -0.77800
O278        O  0.15254252  0.14955262  0.64752683    -1.13900
O279        O  0.09068589  0.14340118  0.67484826    -0.73100
C280        C  0.07614557  0.15160389  0.64847429     0.97600
C281        C  0.20212231  0.20170576  0.62318517     0.94000
Al282      Al  0.18807384  0.13113429  0.62921090     1.55600
O283        O  0.12186343  0.20558648  0.67030171    -0.77800
C284        C  0.14872032  0.07372049  0.64959193     0.98200
C285        C  0.15253516  0.14746549  0.57064944     0.93000
O286        O  0.14236028  0.17331670  0.58484191    -0.83100
O287        O  0.41683485  0.33923296  0.62085097    -0.82500
C288        C  0.30303894  0.37418516  0.69381636     0.96800
O289        O  0.33198657  0.38456660  0.69956529    -0.71600
O290        O  0.37119135  0.33394780  0.70565671    -0.75200
Al291      Al  0.37372036  0.37303059  0.67998389     1.49000
C292        C  0.38172640  0.30551922  0.69822721     0.92100
O293        O  0.33741851  0.29131257  0.63335132    -0.81500
O294        O  0.34065427  0.37556023  0.58479798    -0.75000
Al295      Al  0.37598178  0.31737959  0.62773408     1.90100
O296        O  0.30226176  0.32678553  0.61297115    -0.74100
O297        O  0.32862450  0.41428030  0.63536993    -0.73900
O298        O  0.29581565  0.36317181  0.66558668    -0.79600
O299        O  0.37753481  0.41478691  0.65811859    -0.77800
O300        O  0.35676957  0.35320892  0.64453854    -1.13900
O301        O  0.41909974  0.36505270  0.66842487    -0.73100
C302        C  0.43341520  0.35384895  0.64287016     0.97600
C303        C  0.30883830  0.29783348  0.62291663     0.94000
Al304      Al  0.31996538  0.36877756  0.62617877     1.55600
O305        O  0.39026746  0.29929503  0.66889145    -0.77800
C306        C  0.35388575  0.43007590  0.64446617     0.98200
C307        C  0.35520372  0.35338655  0.56842458     0.93000
O308        O  0.36571519  0.32758839  0.58280253    -0.83100
O309        O  0.41580957  0.17067269  0.87535789    -0.82500
C310        C  0.30545948  0.12899388  0.80039269     0.96800
O311        O  0.33517345  0.12136951  0.79492149    -0.71600
O312        O  0.37069947  0.17489666  0.79058128    -0.75200
Al313      Al  0.37538466  0.13545401  0.81532763     1.49000
C314        C  0.37860180  0.20379428  0.79920675     0.92100
O315        O  0.33318580  0.21280514  0.86553199    -0.81500
O316        O  0.34160134  0.12775099  0.91035296    -0.75000
Al317      Al  0.37336187  0.18949772  0.86950453     1.90100
O318        O  0.29977455  0.17406921  0.88269481    -0.74100
O319        O  0.33327408  0.08965424  0.85891274    -0.73900
O320        O  0.29656198  0.13840925  0.82884325    -0.79600
O321        O  0.38216089  0.09392417  0.83617340    -0.77800
O322        O  0.35665121  0.15298777  0.85122746    -1.13900
O323        O  0.41953409  0.14581269  0.82729741    -0.73100
C324        C  0.43288665  0.15688447  0.85323997     0.97600
C325        C  0.30488839  0.20384334  0.87483216     0.94000
Al326      Al  0.32086718  0.13402629  0.86875988     1.55600
O327        O  0.38554338  0.21030219  0.82894076    -0.77800
C328        C  0.36009696  0.07666037  0.84991036     0.98200
C329        C  0.35609586  0.14969934  0.92715637     0.93000
O330        O  0.36459918  0.17670578  0.91396187    -0.83100
O331        O  0.09240111  0.34261429  0.87128577    -0.82500
C332        C  0.20703482  0.37879937  0.80011401     0.96800
O333        O  0.17786797  0.38709775  0.79303178    -0.71600
O334        O  0.14192343  0.33390218  0.78837223    -0.75200
Al335      Al  0.13666326  0.37425833  0.81179748     1.49000
C336        C  0.13129172  0.30578666  0.79701191     0.92100
O337        O  0.17351851  0.29595721  0.86360907    -0.81500
O338        O  0.16688545  0.38127347  0.90879542    -0.75000
Al339      Al  0.13400875  0.32117490  0.86679320     1.90100
O340        O  0.20745393  0.33363066  0.88226357    -0.74100
O341        O  0.17772453  0.41911840  0.85696784    -0.73900
O342        O  0.21434849  0.36911523  0.82887661    -0.79600
O343        O  0.13017815  0.41675219  0.83135190    -0.77800
O344        O  0.15296289  0.35680789  0.84890833    -1.13900
O345        O  0.09179290  0.36503023  0.82191582    -0.73100
C346        C  0.07669815  0.35603867  0.84771912     0.97600
C347        C  0.20185701  0.30413388  0.87376232     0.94000
Al348      Al  0.18857485  0.37445412  0.86767730     1.55600
O349        O  0.12130880  0.30110110  0.82617707    -0.77800
C350        C  0.15222865  0.43342768  0.84588143     0.98200
C351        C  0.15233775  0.35903311  0.92529057     0.93000
O352        O  0.14251829  0.33286774  0.91151080    -0.83100
O353        O  0.91619238  0.88131545  0.33257314    -0.82500
C354        C  0.80384848  0.80739654  0.37252519     0.96800
O355        O  0.83353954  0.80138610  0.37961591    -0.71600
O356        O  0.86951772  0.79688757  0.32575001    -0.75200
Al357      Al  0.87400948  0.82127340  0.36577484     1.49000
C358        C  0.87881682  0.80588081  0.29722962     0.92100
O359        O  0.83439332  0.87307794  0.28709387    -0.81500
O360        O  0.83998686  0.91672422  0.37235904    -0.75000
Al361      Al  0.87412026  0.87619102  0.31203161     1.90100
O362        O  0.79956450  0.88831358  0.32562565    -0.74100
O363        O  0.83185778  0.86547954  0.41069724    -0.73900
O364        O  0.79576546  0.83560503  0.36190656    -0.79600
O365        O  0.88031341  0.84173877  0.40796846    -0.77800
O366        O  0.85609014  0.85760599  0.34796520    -1.13900
O367        O  0.91841262  0.83252781  0.35593204    -0.73100
C368        C  0.93270977  0.85851542  0.34614583     0.97600
C369        C  0.80572137  0.88158514  0.29575944     0.94000
Al370      Al  0.81999038  0.87509682  0.36612250     1.55600
O371        O  0.88665829  0.83558791  0.29156289    -0.77800
C372        C  0.85797082  0.85585275  0.42470160     0.98200
C373        C  0.85404972  0.93392941  0.35049855     0.93000
O374        O  0.86517162  0.92074461  0.32446164    -0.83100
O375        O  0.91639470  0.63224210  0.15490026    -0.82500
C376        C  0.80090005  0.70453313  0.12362451     0.96800
O377        O  0.82983872  0.71145324  0.11424930    -0.71600
O378        O  0.86899392  0.71594444  0.16511523    -0.75200
Al379      Al  0.87164597  0.69211062  0.12496257     1.49000
C380        C  0.88114573  0.70773187  0.19274009     0.92100
O381        O  0.83794113  0.64164082  0.20543574    -0.81500
O382        O  0.83995698  0.59540184  0.12024852    -0.75000
Al383      Al  0.87601840  0.63763165  0.17832622     1.90100
O384        O  0.80169904  0.62332683  0.16977660    -0.74100
O385        O  0.82832719  0.64646754  0.08185731    -0.73900
O386        O  0.79393615  0.67574143  0.13328413    -0.79600
O387        O  0.87583478  0.67211761  0.08275059    -0.77800
O388        O  0.85564250  0.65543842  0.14346404    -1.13900
O389        O  0.91702667  0.68132768  0.13194019    -0.73100
C390        C  0.93206738  0.65541429  0.14081453     0.97600
C391        C  0.80911216  0.63171730  0.19907423     0.94000
Al392      Al  0.81907984  0.63680455  0.12751140     1.55600
O393        O  0.89044060  0.67833904  0.19751608    -0.77800
C394        C  0.85371853  0.65696791  0.06686845     0.98200
C395        C  0.85495832  0.57871980  0.14194152     0.93000
O396        O  0.86615181  0.59287331  0.16746784    -0.83100
O397        O  0.58803556  0.88102632  0.16025621    -0.82500
C398        C  0.70379276  0.81045719  0.12658382     0.96800
O399        O  0.67492597  0.80388931  0.11657940    -0.71600
O400        O  0.63581298  0.79734511  0.16724979    -0.75200
Al401      Al  0.63287175  0.82250742  0.12782494     1.49000
C402        C  0.62466361  0.80478723  0.19545364     0.92100
O403        O  0.66786218  0.87095575  0.20906554    -0.81500
O404        O  0.66315462  0.91883830  0.12425080    -0.75000
Al405      Al  0.62899026  0.87540836  0.18275277     1.90100
O406        O  0.70234050  0.89179845  0.17314765    -0.74100
O407        O  0.67660935  0.86829251  0.08591551    -0.73900
O408        O  0.71044024  0.83902455  0.13715306    -0.79600
O409        O  0.62848943  0.84364716  0.08607506    -0.77800
O410        O  0.64879929  0.85867932  0.14717349    -1.13900
O411        O  0.58746172  0.83301641  0.13511125    -0.73100
C412        C  0.57257878  0.85878086  0.14460680     0.97600
C413        C  0.69629515  0.88171408  0.20216605     0.94000
Al414      Al  0.68505303  0.87791777  0.13133797     1.55600
O415        O  0.61553599  0.83403649  0.20125557    -0.77800
C416        C  0.65142785  0.85815910  0.07065557     0.98200
C417        C  0.64788593  0.93501517  0.14620893     0.93000
O418        O  0.63809212  0.92068663  0.17226121    -0.83100
O419        O  0.59351367  0.62899416  0.33403849    -0.82500
C420        C  0.70388531  0.70544009  0.37326701     0.96800
O421        O  0.67411310  0.71087992  0.38035783    -0.71600
O422        O  0.63798880  0.71388430  0.32700213    -0.75200
Al423      Al  0.63425126  0.68979313  0.36702187     1.20200
C424        C  0.62943452  0.70474391  0.29840404     0.92100
O425        O  0.67492047  0.63785669  0.28888972    -0.81500
O426        O  0.67083957  0.59441341  0.37405920    -0.75000
Al427      Al  0.63542277  0.63462785  0.31376230     1.90100
O428        O  0.71064817  0.62456314  0.32738417    -0.74100
O429        O  0.67700491  0.64586871  0.41266080    -0.73900
O430        O  0.71315481  0.67713252  0.36413352    -0.79600
O431        O  0.62848180  0.66975057  0.40911524    -0.77800
O432        O  0.65311795  0.65368307  0.34961041    -1.13900
O433        O  0.59001370  0.67755735  0.35762099    -0.73100
C434        C  0.57658171  0.65122971  0.34788454     0.97600
C435        C  0.70383264  0.63011934  0.29735387     0.94000
Al436      Al  0.68967872  0.63689559  0.36802544     1.55600
O437        O  0.62257839  0.67485819  0.29261614    -0.77800
C438        C  0.65059068  0.65563402  0.42606200     0.98200
C439        C  0.65601974  0.57730087  0.35264726     0.93000
O440        O  0.64458977  0.59047729  0.32674852    -0.83100
O441        O  0.62756354  0.09445480  0.15992710    -0.82500
C442        C  0.70058415  0.20766793  0.12243053     0.96800
O443        O  0.70683428  0.17826716  0.11380510    -0.71600
O444        O  0.71194012  0.13880318  0.16455854    -0.75200
Al445      Al  0.68667556  0.13691616  0.12499890     1.49000
C446        C  0.70385671  0.12994570  0.19337153     0.92100
O447        O  0.63797158  0.17625439  0.20504239    -0.81500
O448        O  0.59087759  0.16953348  0.12030010    -0.75000
Al449      Al  0.63355818  0.13645232  0.18032440     1.90100
O450        O  0.61856321  0.20988642  0.16741033    -0.74100
O451        O  0.64197306  0.18092686  0.08166368    -0.73900
O452        O  0.67183501  0.21592797  0.13128467    -0.79600
O453        O  0.66615938  0.13276260  0.08258743    -0.77800
O454        O  0.65092149  0.15459739  0.14389642    -1.13900
O455        O  0.67426738  0.09221216  0.13277239    -0.73100
C456        C  0.64882068  0.07809322  0.14390596     0.97600
C457        C  0.62739617  0.20450130  0.19683719     0.94000
Al458      Al  0.63241486  0.19087290  0.12655567     1.55600
O459        O  0.67420321  0.12342109  0.20013188    -0.77800
C460        C  0.65198967  0.15561906  0.06659998     0.98200
C461        C  0.57448131  0.15528063  0.14282619     0.93000
O462        O  0.58880948  0.14566828  0.16897218    -0.83100
O463        O  0.62782474  0.41897329  0.33226939    -0.82500
C464        C  0.70006889  0.30454399  0.36926275     0.96800
O465        O  0.70704088  0.33404205  0.37660469    -0.71600
O466        O  0.71065837  0.37126699  0.32437432    -0.75200
Al467      Al  0.68734902  0.37522110  0.36464192     1.49000
C468        C  0.70183037  0.38037692  0.29587780     0.92100
O469        O  0.63409745  0.33652792  0.28766511    -0.81500
O470        O  0.59071880  0.34395540  0.37314835    -0.75000
Al471      Al  0.63176692  0.37657348  0.31191816     1.90100
O472        O  0.61739429  0.30254376  0.32634408    -0.74100
O473        O  0.64241246  0.33408062  0.41080930    -0.73900
O474        O  0.67092871  0.29657748  0.36169244    -0.79600
O475        O  0.66863329  0.38132485  0.40723315    -0.77800
O476        O  0.65029706  0.35817742  0.34774066    -1.13900
O477        O  0.67626577  0.41988153  0.35611123    -0.73100
C478        C  0.65058166  0.43478359  0.34662440     0.97600
C479        C  0.62488096  0.30801538  0.29655851     0.94000
Al480      Al  0.63194306  0.32248571  0.36647172     1.55600
O481        O  0.67220983  0.38823353  0.29024397    -0.77800
C482        C  0.65365281  0.35984462  0.42422491     0.98200
C483        C  0.57353911  0.35790467  0.35108058     0.93000
O484        O  0.58700617  0.36861426  0.32493410    -0.83100
O485        O  0.87720070  0.09316394  0.33279441    -0.82500
C486        C  0.80448375  0.20573672  0.37242430     0.96800
O487        O  0.79956443  0.17647073  0.38211284    -0.71600
O488        O  0.79280575  0.13930882  0.32981851    -0.75200
Al489      Al  0.81910244  0.13558761  0.36868282     1.49000
C490        C  0.79974552  0.13003235  0.30080921     0.92100
O491        O  0.86563789  0.17406106  0.28724717    -0.81500
O492        O  0.91503759  0.16917087  0.37009058    -0.75000
Al493      Al  0.87066059  0.13477375  0.31218244     1.90100
O494        O  0.88456860  0.20899964  0.32367653    -0.74100
O495        O  0.86499163  0.17899422  0.41037402    -0.73900
O496        O  0.83261331  0.21394055  0.36158847    -0.79600
O497        O  0.84152476  0.13032072  0.41004018    -0.77800
O498        O  0.85431460  0.15319768  0.34878734    -1.13900
O499        O  0.83033414  0.09091610  0.35944086    -0.73100
C500        C  0.85568447  0.07668058  0.34812989     0.97600
C501        C  0.87550139  0.20267796  0.29445041     0.94000
Al502      Al  0.87275911  0.18967320  0.36517751     1.55600
O503        O  0.82903876  0.12184416  0.29379578    -0.77800
C504        C  0.85621935  0.15317589  0.42555846     0.98200
C505        C  0.93086817  0.15394998  0.34781705     0.93000
O506        O  0.91590745  0.14378876  0.32226344    -0.83100
O507        O  0.87995042  0.41851153  0.15888672    -0.82500
C508        C  0.80447347  0.30689231  0.12212240     0.96800
O509        O  0.79974077  0.33624750  0.11248966    -0.71600
O510        O  0.79473626  0.37347340  0.16486158    -0.75200
Al511      Al  0.81994473  0.37705771  0.12556931     1.49000
C512        C  0.80255075  0.38343975  0.19343332     0.92100
O513        O  0.86773097  0.33865444  0.20623232    -0.81500
O514        O  0.91479179  0.34170640  0.12147079    -0.75000
Al515      Al  0.87299328  0.37746944  0.18046103     1.90100
O516        O  0.88542221  0.30311378  0.16936107    -0.74100
O517        O  0.86332942  0.33248059  0.08280620    -0.73900
O518        O  0.83245407  0.29851952  0.13312155    -0.79600
O519        O  0.84149998  0.38200011  0.08412426    -0.77800
O520        O  0.85533664  0.35898128  0.14459271    -1.13900
O521        O  0.83174556  0.42198649  0.13457646    -0.73100
C522        C  0.85784940  0.43555764  0.14499359     0.97600
C523        C  0.87716929  0.30993034  0.19872312     0.94000
Al524      Al  0.87261027  0.32206618  0.12797409     1.55600
O525        O  0.83200539  0.39174958  0.19942205    -0.77800
C526        C  0.85431879  0.35857464  0.06797287     0.98200
C527        C  0.93155980  0.35624781  0.14349446     0.93000
O528        O  0.91771715  0.36691973  0.16943026    -0.83100
O529        O  0.16582075  0.08957085  0.37415157    -0.82500
C530        C  0.12786219  0.20287754  0.30051687     0.96800
O531        O  0.12123539  0.17321050  0.29368639    -0.71600
O532        O  0.17455002  0.13799081  0.29081917    -0.75200
Al533      Al  0.13416505  0.13260974  0.31363768     1.49000
C534        C  0.20277831  0.12827829  0.29975611     0.92100
O535        O  0.21066148  0.17197016  0.36741937    -0.81500
O536        O  0.12493738  0.16447864  0.41037692    -0.75000
Al537      Al  0.18618201  0.13187011  0.36978105     1.90100
O538        O  0.17168371  0.20604904  0.38310162    -0.74100
O539        O  0.08709866  0.17297357  0.35835124    -0.73900
O540        O  0.13591978  0.21106556  0.32952327    -0.79600
O541        O  0.09147034  0.12566437  0.33207876    -0.77800
O542        O  0.15046936  0.14997232  0.35086864    -1.13900
O543        O  0.14375952  0.08797898  0.32474271    -0.73100
C544        C  0.15251328  0.07341110  0.35092726     0.97600
C545        C  0.20169227  0.20041742  0.37674260     0.94000
Al546      Al  0.13144925  0.18554136  0.36883476     1.55600
O547        O  0.20776202  0.11966187  0.32939590    -0.77800
C548        C  0.07399038  0.14723324  0.34637395     0.98200
C549        C  0.14686286  0.15047451  0.42759767     0.93000
O550        O  0.17310404  0.14015324  0.41431783    -0.83100
O551        O  0.16411343  0.41389822  0.12266806    -0.82500
C552        C  0.12879743  0.29819987  0.19275556     0.96800
O553        O  0.11963809  0.32732143  0.19948219    -0.71600
O554        O  0.17095429  0.36542781  0.20667065    -0.75200
Al555      Al  0.13162768  0.36926871  0.18122103     1.49000
C556        C  0.19887828  0.37721717  0.19933366     0.92100
O557        O  0.21277897  0.33472812  0.13385937    -0.81500
O558        O  0.13012215  0.33940760  0.08337803    -0.75000
Al559      Al  0.18671834  0.37333856  0.12897742     1.90100
O560        O  0.17738030  0.29965643  0.11289231    -0.74100
O561        O  0.08975925  0.32728434  0.13322522    -0.73900
O562        O  0.13894056  0.29141030  0.16403809    -0.79600
O563        O  0.09016444  0.37438636  0.15987402    -0.77800
O564        O  0.15099293  0.35338562  0.14500004    -1.13900
O565        O  0.13958319  0.41488714  0.17095937    -0.73100
C566        C  0.14921897  0.42973736  0.14504133     0.97600
C567        C  0.20637339  0.30640388  0.12243895     0.94000
Al568      Al  0.13520146  0.31743734  0.12504526     1.55600
O569        O  0.20425962  0.38728450  0.17033067    -0.77800
C570        C  0.07463676  0.35240377  0.14398981     0.98200
C571        C  0.15310971  0.35425525  0.06823757     0.93000
O572        O  0.17797915  0.36410270  0.08400267    -0.83100
O573        O  0.33972674  0.09094220  0.12379164    -0.82500
C574        C  0.37909268  0.20583712  0.19256218     0.96800
O575        O  0.38699746  0.17639390  0.19969610    -0.71600
O576        O  0.33381867  0.14040997  0.20699835    -0.75200
Al577      Al  0.37332743  0.13479972  0.18208813     1.49000
C578        C  0.30553028  0.12981498  0.19921398     0.92100
O579        O  0.29465574  0.17245580  0.13164982    -0.81500
O580        O  0.37910448  0.16358439  0.08511303    -0.75000
Al581      Al  0.31916311  0.13273252  0.12853267     1.90100
O582        O  0.33227932  0.20591504  0.11146569    -0.74100
O583        O  0.41792916  0.17533378  0.13558845    -0.73900
O584        O  0.36896925  0.21303029  0.16392770    -0.79600
O585        O  0.41482127  0.12765175  0.16139665    -0.77800
O586        O  0.35527659  0.15130335  0.14539276    -1.13900
O587        O  0.36345046  0.08946113  0.17258234    -0.73100
C588        C  0.35343934  0.07483778  0.14683469     0.97600
C589        C  0.30283363  0.20030781  0.12018313     0.94000
Al590      Al  0.37316070  0.18649741  0.12559609     1.55600
O591        O  0.29986058  0.12058714  0.16993333    -0.77800
C592        C  0.43166960  0.14953670  0.14679868     0.98200
C593        C  0.35664412  0.14892203  0.06918757     0.93000
O594        O  0.33021016  0.14072730  0.08346716    -0.83100
O595        O  0.33777679  0.41385895  0.37322079    -0.82500
C596        C  0.37713042  0.30159722  0.29942441     0.96800
O597        O  0.38500951  0.33126879  0.29334291    -0.71600
O598        O  0.33113890  0.36664304  0.28917235    -0.75200
Al599      Al  0.37090666  0.37196411  0.31318093     1.49000
C600        C  0.30253950  0.37508148  0.29820185     0.92100
O601        O  0.29395026  0.33123169  0.36657367    -0.81500
O602        O  0.37980041  0.33865609  0.40847235    -0.75000
Al603      Al  0.31804543  0.37139974  0.36862287     1.90100
O604        O  0.33275250  0.29731801  0.38244365    -0.74100
O605        O  0.41700466  0.33033187  0.35623821    -0.73900
O606        O  0.36711831  0.29364752  0.32787732    -0.79600
O607        O  0.41281259  0.37922932  0.33334393    -0.77800
O608        O  0.35382657  0.35388667  0.34979544    -1.13900
O609        O  0.36058744  0.41646092  0.32429400    -0.73100
C610        C  0.35129791  0.43055323  0.35058003     0.97600
C611        C  0.30266585  0.30297632  0.37672687     0.94000
Al612      Al  0.37266218  0.31806301  0.36724669     1.55600
O613        O  0.29666146  0.38292581  0.32792132    -0.77800
C614        C  0.43029988  0.35707433  0.34673562     0.98200
C615        C  0.35788054  0.35232285  0.42586126     0.93000
O616        O  0.33154303  0.36303827  0.41299242    -0.83100
O617        O  0.16581892  0.62434764  0.08810343    -0.82500
C618        C  0.12803534  0.69973744  0.19981748     0.96800
O619        O  0.12198445  0.70656113  0.16991916    -0.71600
O620        O  0.17538324  0.70869054  0.13436841    -0.75200
Al621      Al  0.13485309  0.68600029  0.12943119     1.49000
C622        C  0.20339473  0.69938208  0.12440071     0.92100
O623        O  0.21058390  0.63282289  0.16971645    -0.81500
O624        O  0.12469726  0.59004289  0.16307783    -0.75000
Al625      Al  0.18630256  0.62952682  0.12994161     1.90100
O626        O  0.17169727  0.61763313  0.20438845    -0.74100
O627        O  0.08761587  0.64222572  0.17053996    -0.73900
O628        O  0.13599844  0.67084344  0.20827926    -0.79600
O629        O  0.09230661  0.66753578  0.12268068    -0.77800
O630        O  0.15082353  0.64899916  0.14760949    -1.13900
O631        O  0.14444707  0.67404761  0.08477694    -0.73100
C632        C  0.15344691  0.64742394  0.07108561     0.97600
C633        C  0.20154152  0.62446799  0.19842447     0.94000
Al634      Al  0.13157916  0.63161635  0.18345501     1.55600
O635        O  0.20816714  0.66951327  0.11660815    -0.77800
C636        C  0.07480561  0.65306673  0.14416623     0.98200
C637        C  0.14637078  0.57244049  0.14936378     0.93000
O638        O  0.17298867  0.58518841  0.13928734    -0.83100
O639        O  0.34398379  0.62907962  0.40864260    -0.82500
C640        C  0.37914788  0.69786025  0.29110129     0.96800
O641        O  0.38831755  0.70481314  0.32023707    -0.71600
O642        O  0.33703884  0.71193560  0.35875789    -0.75200
Al643      Al  0.37643365  0.68682268  0.36259437     1.49000
C644        C  0.30886210  0.70421988  0.36954574     0.92100
O645        O  0.29592846  0.63607277  0.32804613    -0.81500
O646        O  0.38040090  0.59000161  0.33314409    -0.75000
Al647      Al  0.32195498  0.63337901  0.36709039     1.90100
O648        O  0.33234283  0.61658992  0.29336887    -0.74100
O649        O  0.41862030  0.64052653  0.32006823    -0.73900
O650        O  0.36836570  0.66931644  0.28472635    -0.79600
O651        O  0.41815465  0.66578001  0.36785911    -0.77800
O652        O  0.35737010  0.65025433  0.34698621    -1.13900
O653        O  0.36862480  0.67719551  0.40833506    -0.73100
C654        C  0.35915911  0.65177243  0.42389103     0.97600
C655        C  0.30307009  0.62490079  0.29973810     0.94000
Al656      Al  0.37362550  0.63074811  0.31095657     1.55600
O657        O  0.30275948  0.67497780  0.37885918    -0.77800
C658        C  0.43380044  0.65091539  0.34523466     0.98200
C659        C  0.35839025  0.57364690  0.34799704     0.93000
O660        O  0.33298337  0.58797401  0.35918493    -0.83100
O661        O  0.16911103  0.87625456  0.40938550    -0.82500
C662        C  0.12865617  0.80615002  0.29596269     0.96800
O663        O  0.12021588  0.79924631  0.32537392    -0.71600
O664        O  0.17252692  0.79238031  0.36186608    -0.75200
Al665      Al  0.13354694  0.81776334  0.36697415     1.49000
C666        C  0.20132708  0.79948641  0.37113200     0.92100
O667        O  0.21237894  0.86559010  0.32740355    -0.81500
O668        O  0.12898177  0.91433729  0.33728409    -0.75000
Al669      Al  0.18888783  0.87027450  0.36754511     1.90100
O670        O  0.17496824  0.88731805  0.29505118    -0.74100
O671        O  0.08951979  0.86413265  0.32570777    -0.73900
O672        O  0.13818411  0.83497094  0.28879263    -0.79600
O673        O  0.09214015  0.83880757  0.37359962    -0.77800
O674        O  0.15206857  0.85392150  0.34991927    -1.13900
O675        O  0.14330398  0.82853406  0.41208376    -0.73100
C676        C  0.15414238  0.85439080  0.42593062     0.97600
C677        C  0.20405171  0.87712845  0.29955134     0.94000
Al678      Al  0.13426467  0.87358020  0.31469656     1.55600
O679        O  0.20786927  0.82869437  0.38011457    -0.77800
C680        C  0.07552058  0.85325134  0.35144554     0.98200
C681        C  0.15222382  0.93026586  0.35073721     0.93000
O682        O  0.17858996  0.91567490  0.35887161    -0.83100
O683        O  0.33745067  0.87902618  0.08368994    -0.82500
C684        C  0.38004592  0.80442804  0.19473214     0.96800
O685        O  0.38735293  0.79905206  0.16487440    -0.71600
O686        O  0.33426474  0.79300405  0.12895511    -0.75200
Al687      Al  0.37302722  0.81936182  0.12470856     1.49000
C688        C  0.30550854  0.80045519  0.11938287     0.92100
O689        O  0.29217038  0.86494381  0.16504733    -0.81500
O690        O  0.37412310  0.91533308  0.16027423    -0.75000
Al691      Al  0.31685070  0.87111460  0.12544049     1.90100
O692        O  0.32961713  0.88266739  0.20013167    -0.74100
O693        O  0.41534774  0.86588949  0.16753679    -0.73900
O694        O  0.36909926  0.83220398  0.20364185    -0.79600
O695        O  0.41415428  0.84186041  0.11899773    -0.77800
O696        O  0.35361861  0.85443182  0.14328515    -1.13900
O697        O  0.36293309  0.83136906  0.08017856    -0.73100
C698        C  0.35231082  0.85749483  0.06660818     0.97600
C699        C  0.30045153  0.87382779  0.19384539     0.94000
Al700      Al  0.37068599  0.87251988  0.17973445     1.55600
O701        O  0.29906453  0.82984669  0.11105292    -0.77800
C702        C  0.42990898  0.85692664  0.14147725     0.98200
C703        C  0.35099972  0.93121673  0.14650638     0.93000
O704        O  0.32597423  0.91600747  0.13602483    -0.83100
C705        C  0.24611871  0.89115822  0.21565839    -0.21000
C706        C  0.27592657  0.87436321  0.22074542    -0.07600
C707        C  0.28215486  0.85890729  0.25158362     0.13300
C708        C  0.25841447  0.86087017  0.27668937    -0.21100
C709        C  0.22842215  0.87782230  0.27197554    -0.07600
C710        C  0.22228200  0.89337260  0.24085957     0.13300
C711        C  0.19112655  0.91263941  0.23368956    -0.24400
H712        H  0.24171565  0.90301540  0.19190043     0.14500
H713        H  0.26327140  0.84850426  0.30007761     0.14600
C714        C  0.31317103  0.83912986  0.25786422    -0.24400
H715        H  0.19159510  0.92411456  0.20862425     0.04800
H716        H  0.18823675  0.93293904  0.25202758     0.08000
H717        H  0.16939288  0.89589606  0.23454706     0.08000
H718        H  0.33512476  0.85552678  0.25670669     0.08000
H719        H  0.31531789  0.81913594  0.23910789     0.08000
H720        H  0.31305603  0.82727284  0.28275657     0.04800
C721        C  0.36967976  0.74624197  0.20977986    -0.21000
C722        C  0.38277225  0.77709070  0.21886088    -0.07600
C723        C  0.39634801  0.78119069  0.25082575     0.13300
C724        C  0.39508867  0.75472577  0.27334018    -0.21100
C725        C  0.38101427  0.72392581  0.26485437    -0.07600
C726        C  0.36839541  0.71963737  0.23222834     0.13300
C727        C  0.35281161  0.68770457  0.22067424    -0.24400
H728        H  0.35931067  0.74329568  0.18514573     0.14500
H729        H  0.40532099  0.75843466  0.29790548     0.14600
C730        C  0.41320355  0.81262386  0.26190152    -0.24400
H731        H  0.34423336  0.68929661  0.19453563     0.04800
H732        H  0.33091558  0.68179463  0.23619438     0.08000
H733        H  0.37112850  0.66726412  0.22207536     0.08000
H734        H  0.39908869  0.82383566  0.28266439     0.08000
H735        H  0.41583065  0.83126830  0.24190608     0.08000
H736        H  0.43854396  0.80669361  0.27067448     0.04800
C737        C  0.25061720  0.71922966  0.35930470    -0.21000
C738        C  0.28197789  0.72899588  0.37036932    -0.07600
C739        C  0.28671241  0.76165131  0.38181490     0.13300
C740        C  0.25975448  0.78354723  0.38242583    -0.21100
C741        C  0.22815182  0.77404433  0.37114872    -0.07600
C742        C  0.22377388  0.74128373  0.35897306     0.13300
C743        C  0.19137866  0.72909891  0.34501034    -0.24400
H744        H  0.24729279  0.69419079  0.35015075     0.14500
H745        H  0.26366374  0.80849146  0.39152059     0.14600
C746        C  0.31988097  0.77334351  0.39415361    -0.24400
H747        H  0.19299569  0.70298161  0.33654721     0.04800
H748        H  0.18416290  0.74436561  0.32322497     0.08000
H749        H  0.17187420  0.73019731  0.36433201     0.08000
H750        H  0.33811827  0.77300006  0.37360443     0.08000
H751        H  0.32855334  0.75697355  0.41455711     0.08000
H752        H  0.31872547  0.79908922  0.40379126     0.04800
C753        C  0.22142693  0.75727316  0.11598275    -0.21000
C754        C  0.23036963  0.72412059  0.12124932    -0.07600
C755        C  0.26428577  0.71599148  0.12463453     0.13300
C756        C  0.28803863  0.74134472  0.12310353    -0.21100
C757        C  0.27907264  0.77471119  0.11833314    -0.07600
C758        C  0.24501357  0.78263825  0.11450028     0.13300
C759        C  0.23262026  0.81762707  0.10967676    -0.24400
H760        H  0.19550369  0.76350720  0.11321841     0.14500
H761        H  0.31388616  0.73498483  0.12615740     0.14600
C762        C  0.27580646  0.68102540  0.13117904    -0.24400
H763        H  0.20526532  0.81872656  0.10768640     0.04800
H764        H  0.24279973  0.82818447  0.08637504     0.08000
H765        H  0.23977804  0.83315004  0.13121215     0.08000
H766        H  0.26944373  0.66487435  0.10986693     0.08000
H767        H  0.26408653  0.67141242  0.15415246     0.08000
H768        H  0.30300617  0.67967616  0.13463918     0.04800
C769        C  0.14042305  0.75728094  0.21566006    -0.21000
C770        C  0.12704235  0.72652408  0.22460814    -0.07600
C771        C  0.11347776  0.72221403  0.25655927     0.13300
C772        C  0.11385850  0.74886092  0.27883914    -0.21100
C773        C  0.12764118  0.77977117  0.27019862    -0.07600
C774        C  0.14122837  0.78389943  0.23792826     0.13300
C775        C  0.15724911  0.81573278  0.22649638    -0.24400
H776        H  0.15099648  0.76027962  0.19110997     0.14500
H777        H  0.10337522  0.74531790  0.30332198     0.14600
C778        C  0.09761723  0.69002730  0.26698626    -0.24400
H779        H  0.16684673  0.81385050  0.20074950     0.04800
H780        H  0.17853099  0.82183376  0.24276839     0.08000
H781        H  0.13892472  0.83620706  0.22679713     0.08000
H782        H  0.11629636  0.66994456  0.26762642     0.08000
H783        H  0.07767023  0.68340995  0.24927782     0.08000
H784        H  0.08655348  0.69172857  0.29213903     0.04800
C785        C  0.24541565  0.63459220  0.28111831    -0.21000
C786        C  0.27704631  0.62224134  0.27371946    -0.07600
C787        C  0.28307739  0.60935558  0.24141457     0.13300
C788        C  0.25764025  0.60991126  0.21775948    -0.21100
C789        C  0.22635819  0.62268976  0.22523371    -0.07600
C790        C  0.22016257  0.63522302  0.25736762     0.13300
C791        C  0.18772982  0.65114159  0.26642418    -0.24400
H792        H  0.24050114  0.64474835  0.30549383     0.14500
H793        H  0.26224210  0.60044028  0.19302638     0.14600
C794        C  0.31596273  0.59503245  0.23110743    -0.24400
H795        H  0.18765255  0.66039356  0.29233577     0.04800
H796        H  0.16735707  0.63290139  0.26426703     0.08000
H797        H  0.18319184  0.67267043  0.24990644     0.08000
H798        H  0.32259929  0.57398974  0.24760822     0.08000
H799        H  0.33536888  0.61440981  0.23209747     0.08000
H800        H  0.31544112  0.58545949  0.20529461     0.04800
C801        C  0.37386555  0.48303680  0.32813309    -0.21000
C802        C  0.35599034  0.46707468  0.35349459    -0.07600
C803        C  0.34221008  0.48660824  0.37926127     0.13300
C804        C  0.34485144  0.52131241  0.37751309    -0.21100
C805        C  0.36104080  0.53712886  0.35101259    -0.07600
C806        C  0.37641058  0.51756795  0.32635108     0.13300
C807        C  0.39409968  0.53258163  0.29698619    -0.24400
H808        H  0.38526023  0.46844134  0.30871276     0.14500
H809        H  0.33346333  0.53631443  0.39664595     0.14600
C810        C  0.32412772  0.47157597  0.40832878    -0.24400
H811        H  0.40339612  0.51339260  0.27960583     0.04800
H812        H  0.41577246  0.54701072  0.30561107     0.08000
H813        H  0.37698269  0.54887617  0.28288754     0.08000
H814        H  0.34083739  0.45457653  0.42207367     0.08000
H815        H  0.30202767  0.45788524  0.39952163     0.08000
H816        H  0.31549021  0.49074982  0.42606740     0.04800
C817        C  0.37855053  0.98468613  0.15993069    -0.21000
C818        C  0.35258464  0.96804327  0.14381869    -0.07600
C819        C  0.32841438  0.98713399  0.12664202     0.13300
C820        C  0.33043097  0.02178473  0.12719214    -0.21100
C821        C  0.35540731  0.03825725  0.14466519    -0.07600
C822        C  0.38025488  0.01942132  0.16068679     0.13300
C823        C  0.40910716  0.03553742  0.17794263    -0.24400
H824        H  0.39742509  0.97048310  0.17268599     0.14500
H825        H  0.31149229  0.03622421  0.11476910     0.14600
C826        C  0.30002956  0.97182357  0.10782469    -0.24400
H827        H  0.42738658  0.01697092  0.18678515     0.04800
H828        H  0.40054790  0.04957888  0.19995318     0.08000
H829        H  0.42191788  0.05242283  0.16039080     0.08000
H830        H  0.28349550  0.95830063  0.12514554     0.08000
H831        H  0.30965964  0.95477128  0.08859687     0.08000
H832        H  0.28470500  0.99075277  0.09497943     0.04800
C833        C  0.37766745  0.21999167  0.25184240    -0.21000
C834        C  0.38048161  0.23117784  0.21901205    -0.07600
C835        C  0.38358197  0.26556378  0.21281866     0.13300
C836        C  0.38314278  0.28765284  0.23967470    -0.21100
C837        C  0.37924348  0.27648299  0.27256439    -0.07600
C838        C  0.37671956  0.24193868  0.27857495     0.13300
C839        C  0.37220100  0.22751190  0.31274599    -0.24400
H840        H  0.37504928  0.19368147  0.25668625     0.14500
H841        H  0.38518309  0.31398237  0.23474250     0.14600
C842        C  0.38790860  0.27930975  0.17828649    -0.24400
H843        H  0.37227133  0.19997848  0.31260317     0.04800
H844        H  0.34786825  0.23545628  0.32244919     0.08000
H845        H  0.39248709  0.23570464  0.32936220     0.08000
H846        H  0.36544040  0.27458382  0.16331995     0.08000
H847        H  0.40965898  0.26761252  0.16626714     0.08000
H848        H  0.39196550  0.30653503  0.17848647     0.04800
C849        C  0.12774668  0.48231813  0.16855137    -0.21000
C850        C  0.14429870  0.46624844  0.14238901    -0.07600
C851        C  0.15740926  0.48577049  0.11615208     0.13300
C852        C  0.15598427  0.52044962  0.11843122    -0.21100
C853        C  0.14167772  0.53627611  0.14586777    -0.07600
C854        C  0.12634593  0.51693659  0.17073731     0.13300
C855        C  0.11017304  0.53232900  0.20070655    -0.24400
H856        H  0.11685531  0.46775938  0.18833459     0.14500
H857        H  0.16709772  0.53543431  0.09905749     0.14600
C858        C  0.17367799  0.47080923  0.08600364    -0.24400
H859        H  0.10068305  0.51330570  0.21822612     0.04800
H860        H  0.08887237  0.54776109  0.19286107     0.08000
H861        H  0.12832841  0.54783078  0.21430654     0.08000
H862        H  0.15617172  0.45387059  0.07328847     0.08000
H863        H  0.19633516  0.45714336  0.09337291     0.08000
H864        H  0.18122599  0.49003518  0.06775938     0.04800
C865        C  0.22023156  0.36245669  0.25506502    -0.21000
C866        C  0.22567320  0.37848128  0.22458057    -0.07600
C867        C  0.25697094  0.39354175  0.21865052     0.13300
C868        C  0.28140991  0.39206043  0.24330123    -0.21100
C869        C  0.27564322  0.37617684  0.27359853    -0.07600
C870        C  0.24480085  0.36090428  0.27945224     0.13300
C871        C  0.23814316  0.34142627  0.31060174    -0.24400
H872        H  0.19678577  0.35032978  0.25970916     0.14500
H873        H  0.30528052  0.40349595  0.23898212     0.14600
C874        C  0.26533108  0.41127867  0.18673733    -0.24400
H875        H  0.21330945  0.32970768  0.31033130     0.04800
H876        H  0.23923054  0.35800252  0.33248807     0.08000
H877        H  0.25675790  0.32135780  0.31300697     0.08000
H878        H  0.24755005  0.43180018  0.18239086     0.08000
H879        H  0.26480923  0.39360848  0.16567706     0.08000
H880        H  0.29047375  0.42229150  0.18738266     0.04800
C881        C  0.22314401  0.24874233  0.10865528    -0.21000
C882        C  0.23240915  0.28032708  0.12033354    -0.07600
C883        C  0.26570268  0.28548169  0.13028810     0.13300
C884        C  0.28810375  0.25897374  0.12881257    -0.21100
C885        C  0.27833292  0.22735813  0.11835190    -0.07600
C886        C  0.24557236  0.22227020  0.10758844     0.13300
C887        C  0.23433744  0.18937888  0.09391975    -0.24400
H888        H  0.19797110  0.24442034  0.10061198     0.14500
H889        H  0.31334852  0.26267921  0.13690832     0.14600
C890        C  0.27816525  0.31836354  0.14296435    -0.24400
H891        H  0.20849764  0.19048713  0.08469620     0.04800
H892        H  0.23532181  0.17005033  0.11342395     0.08000
H893        H  0.25047248  0.18203414  0.07289837     0.08000
H894        H  0.26479751  0.32528173  0.16598994     0.08000
H895        H  0.27473425  0.33778389  0.12371909     0.08000
H896        H  0.30491177  0.31751430  0.14912105     0.04800
C897        C  0.16764027  0.01964295  0.37702095    -0.21000
C898        C  0.14871997  0.03684609  0.35337029    -0.07600
C899        C  0.12804039  0.01850808  0.33159527     0.13300
C900        C  0.12874629  0.98383340  0.33268484    -0.21100
C901        C  0.14957224  0.96668776  0.35456801    -0.07600
C902        C  0.16846905  0.98487387  0.37789676     0.13300
C903        C  0.18943580  0.96812448  0.40396683    -0.24400
H904        H  0.18293705  0.03343641  0.39420817     0.14500
H905        H  0.11382238  0.96999412  0.31519626     0.14600
C906        C  0.10503566  0.03477928  0.30695103    -0.24400
H907        H  0.20006864  0.98626243  0.42170112     0.04800
H908        H  0.21044929  0.95496819  0.39221604     0.08000
H909        H  0.17416755  0.95034786  0.41839627     0.08000
H910        H  0.11939799  0.04769165  0.28737590     0.08000
H911        H  0.08858766  0.05254921  0.31994738     0.08000
H912        H  0.08901582  0.01642482  0.29421663     0.04800
C913        C  0.25972861  0.21866036  0.38624548    -0.21000
C914        C  0.22666417  0.22735906  0.38012224    -0.07600
C915        C  0.21858267  0.26137714  0.37642062     0.13300
C916        C  0.24384464  0.28515346  0.37705398    -0.21100
C917        C  0.27721892  0.27639767  0.38109199    -0.07600
C918        C  0.28495808  0.24262586  0.38761260     0.13300
C919        C  0.31925165  0.23131699  0.39694800    -0.24400
H920        H  0.26588786  0.19280307  0.39022452     0.14500
H921        H  0.23732082  0.31097447  0.37384660     0.14600
C922        C  0.18372386  0.27314567  0.37031958    -0.24400
H923        H  0.32025059  0.20423625  0.40186033     0.04800
H924        H  0.32725477  0.24418058  0.41989613     0.08000
H925        H  0.33695085  0.23661374  0.37678889     0.08000
H926        H  0.16779275  0.26686404  0.39183250     0.08000
H927        H  0.17396289  0.26153477  0.34741966     0.08000
H928        H  0.18241843  0.30043458  0.36685024     0.04800
C929        C  0.22107271  0.12598742  0.24129672    -0.21000
C930        C  0.22988158  0.12683141  0.27493179    -0.07600
C931        C  0.26387169  0.12798039  0.28353886     0.13300
C932        C  0.28776186  0.12839948  0.25826408    -0.21100
C933        C  0.27888182  0.12791182  0.22457806    -0.07600
C934        C  0.24483797  0.12670225  0.21607619     0.13300
C935        C  0.23278421  0.12759069  0.18067744    -0.24400
H936        H  0.19515644  0.12517309  0.23454792     0.14500
H937        H  0.31368265  0.12940272  0.26495079     0.14600
C938        C  0.27547573  0.12995699  0.31904237    -0.24400
H939        H  0.20538873  0.12824657  0.17908513     0.04800
H940        H  0.24112630  0.10513477  0.16721181     0.08000
H941        H  0.24220235  0.15026568  0.16834000     0.08000
H942        H  0.26810802  0.10724807  0.33273487     0.08000
H943        H  0.26476414  0.15219212  0.33113694     0.08000
H944        H  0.30279085  0.13200130  0.32079252     0.04800
C945        C  0.14152516  0.21859031  0.24301030    -0.21000
C946        C  0.12733687  0.22753106  0.27345794    -0.07600
C947        C  0.11297358  0.25912344  0.27703278     0.13300
C948        C  0.11319810  0.28104234  0.24998045    -0.21100
C949        C  0.12786139  0.27251311  0.21940664    -0.07600
C950        C  0.14243993  0.24064598  0.21606386     0.13300
C951        C  0.15972410  0.22956081  0.18479950    -0.24400
H952        H  0.15269074  0.19427716  0.24055970     0.14500
H953        H  0.10195364  0.30521842  0.25298902     0.14600
C954        C  0.09652234  0.26951320  0.30891612    -0.24400
H955        H  0.17007085  0.20416082  0.18724683     0.04800
H956        H  0.18062574  0.24647799  0.17913722     0.08000
H957        H  0.14201399  0.22921521  0.16377490     0.08000
H958        H  0.11495350  0.27055245  0.32924457     0.08000
H959        H  0.07679004  0.25154262  0.31548289     0.08000
H960        H  0.08507357  0.29444932  0.30678536     0.04800
C961        C  0.98453238  0.33511923  0.12070705    -0.21000
C962        C  0.96805491  0.35880159  0.14006922    -0.07600
C963        C  0.98697521  0.38299994  0.15699499     0.13300
C964        C  0.02156739  0.38083102  0.15663923    -0.21100
C965        C  0.03813131  0.35540769  0.13956976    -0.07600
C966        C  0.01917819  0.33309740  0.12003008     0.13300
C967        C  0.03474879  0.30687304  0.09843225    -0.24400
H968        H  0.97018076  0.31710727  0.10696039     0.14500
H969        H  0.03569819  0.39879993  0.17065152     0.14600
C970        C  0.97119331  0.41169794  0.17493099    -0.24400
H971        H  0.01604843  0.29337818  0.08348196     0.04800
H972        H  0.04761839  0.28819508  0.11401037     0.08000
H973        H  0.05240131  0.31854475  0.08084925     0.08000
H974        H  0.95735939  0.40284129  0.19697202     0.08000
H975        H  0.95435458  0.42501691  0.15773206     0.08000
H976        H  0.98985768  0.42975950  0.18390235     0.04800
C977        C  0.98393049  0.13562936  0.32226442    -0.21000
C978        C  0.96746565  0.14867487  0.35018737    -0.07600
C979        C  0.98660211  0.15697430  0.37851927     0.13300
C980        C  0.02126925  0.15468048  0.37696736    -0.21100
C981        C  0.03753884  0.14363669  0.34828845    -0.07600
C982        C  0.01850598  0.13294771  0.32094930     0.13300
C983        C  0.03440829  0.12036085  0.28956791    -0.24400
H984        H  0.96978279  0.12837104  0.30065222     0.14500
H985        H  0.03593282  0.16234144  0.39812442     0.14600
C986        C  0.97114123  0.16859691  0.41042366    -0.24400
H987        H  0.01580027  0.11424937  0.27027306     0.04800
H988        H  0.04862773  0.09744554  0.29492370     0.08000
H989        H  0.05116527  0.13955045  0.27920166     0.08000
H990        H  0.95303635  0.14994411  0.41939363     0.08000
H991        H  0.95879998  0.19282237  0.40636717     0.08000
H992        H  0.98982193  0.17214171  0.43029507     0.04800
C993        C  0.88647995  0.26137840  0.27908073    -0.21000
C994        C  0.87627045  0.22951392  0.26904410    -0.07600
C995        C  0.86628593  0.22473224  0.23560640     0.13300
C996        C  0.86739778  0.25155351  0.21351475    -0.21100
C997        C  0.87737909  0.28319764  0.22373721    -0.07600
C998        C  0.88690825  0.28827630  0.25700197     0.13300
C999        C  0.89833249  0.32165682  0.26924520    -0.24400
H1000       H  0.89397529  0.26551748  0.30453682     0.14500
H1001       H  0.85970880  0.24793844  0.18800362     0.14600
C1002       C  0.85405737  0.19187843  0.22259773    -0.24400
H1003       H  0.90663054  0.32060817  0.29549129     0.04800
H1004       H  0.87777084  0.33979330  0.26781331     0.08000
H1005       H  0.91939640  0.33047717  0.25394518     0.08000
H1006       H  0.83146245  0.18420568  0.23622127     0.08000
H1007       H  0.87362100  0.17276797  0.22529170     0.08000
H1008       H  0.84749566  0.19318543  0.19587044     0.04800
C1009       C  0.52026384  0.38611014  0.33808149    -0.21000
C1010       C  0.53701164  0.36029127  0.35450658    -0.07600
C1011       C  0.51828063  0.33542922  0.37064570     0.13300
C1012       C  0.48372281  0.33638278  0.36880602    -0.21100
C1013       C  0.46682354  0.36103042  0.35078474    -0.07600
C1014       C  0.48551798  0.38694204  0.33602039     0.13300
C1015       C  0.46952599  0.41510410  0.31731103    -0.24400
H1016       H  0.53456015  0.40534956  0.32595114     0.14500
H1017       H  0.46983128  0.31679090  0.38080968     0.14600
C1018       C  0.53423921  0.30655766  0.38829798    -0.24400
H1019       H  0.48806830  0.43304348  0.30778340     0.04800
H1020       H  0.45253986  0.42887219  0.33396527     0.08000
H1021       H  0.45569180  0.40535527  0.29564417     0.08000
H1022       H  0.54890254  0.31561113  0.40965208     0.08000
H1023       H  0.55040812  0.29274556  0.37087859     0.08000
H1024       H  0.51568761  0.28882396  0.39817575     0.04800
C1025       C  0.72057059  0.24863674  0.38489235    -0.21000
C1026       C  0.72657581  0.27928481  0.36970886    -0.07600
C1027       C  0.75777574  0.28530279  0.35506728     0.13300
C1028       C  0.78247795  0.26107896  0.35712405    -0.21100
C1029       C  0.77700645  0.23047407  0.37286398    -0.07600
C1030       C  0.74523198  0.22409703  0.38674047     0.13300
C1031       C  0.73671208  0.19186357  0.40371377    -0.24400
H1032       H  0.69646565  0.24404366  0.39571731     0.14500
H1033       H  0.80619593  0.26602730  0.34564861     0.14600
C1034       C  0.76486796  0.31647684  0.33565600    -0.24400
H1035       H  0.71112153  0.19194980  0.41367174     0.04800
H1036       H  0.75373252  0.18754694  0.42489095     0.08000
H1037       H  0.73840306  0.17107761  0.38581747     0.08000
H1038       H  0.76369418  0.33842588  0.35211931     0.08000
H1039       H  0.74669810  0.31891895  0.31517961     0.08000
H1040       H  0.78989394  0.31611030  0.32434525     0.04800
C1041       C  0.75827318  0.39417164  0.27680088    -0.21000
C1042       C  0.72671060  0.38222115  0.26906455    -0.07600
C1043       C  0.72017238  0.37091919  0.23655757     0.13300
C1044       C  0.74515462  0.37259214  0.21252479    -0.21100
C1045       C  0.77694166  0.38460927  0.22004300    -0.07600
C1046       C  0.78351236  0.39551946  0.25293629     0.13300
C1047       C  0.81684209  0.40837705  0.26366195    -0.24400
H1048       H  0.76323455  0.40245203  0.30189224     0.14500
H1049       H  0.73986614  0.36358745  0.18777493     0.14600
C1050       C  0.68764331  0.35520807  0.22740824    -0.24400
H1051       H  0.81689652  0.41619309  0.29006959     0.04800
H1052       H  0.82373146  0.43032326  0.24851278     0.08000
H1053       H  0.83575598  0.38862883  0.26104611     0.08000
H1054       H  0.66727743  0.37343233  0.22992922     0.08000
H1055       H  0.68306642  0.33357279  0.24379930     0.08000
H1056       H  0.68747260  0.34619644  0.20138587     0.04800
C1057       C  0.52216133  0.13271215  0.16580249    -0.21000
C1058       C  0.53798079  0.15048736  0.14020251    -0.07600
C1059       C  0.51827470  0.16443678  0.11463229     0.13300
C1060       C  0.48368704  0.16219600  0.11680795    -0.21100
C1061       C  0.46804006  0.14624459  0.14355745    -0.07600
C1062       C  0.48767337  0.13049320  0.16794320     0.13300
C1063       C  0.47277343  0.11278518  0.19734513    -0.24400
H1064       H  0.53683479  0.12119992  0.18513058     0.14500
H1065       H  0.46863307  0.17375207  0.09777497     0.14600
C1066       C  0.53301340  0.18223329  0.08524919    -0.24400
H1067       H  0.49197034  0.10309794  0.21450991     0.04800
H1068       H  0.45798545  0.09133798  0.18878584     0.08000
H1069       H  0.45687422  0.13008273  0.21161001     0.08000
H1070       H  0.54964287  0.16517576  0.07155656     0.08000
H1071       H  0.54690336  0.20439821  0.09365801     0.08000
H1072       H  0.51375774  0.19087585  0.06759728     0.04800
C1073       C  0.72044702  0.26448597  0.10995613    -0.21000
C1074       C  0.72734334  0.23264272  0.12199325    -0.07600
C1075       C  0.75936069  0.22551300  0.13416939     0.13300
C1076       C  0.78374211  0.25009157  0.13320520    -0.21100
C1077       C  0.77720536  0.28203748  0.12088549    -0.07600
C1078       C  0.74480242  0.28931933  0.10915885     0.13300
C1079       C  0.73516863  0.32295790  0.09591828    -0.24400
H1080       H  0.69576861  0.26990116  0.10096451     0.14500
H1081       H  0.80809102  0.24426387  0.14277317     0.14600
C1082       C  0.76778905  0.19266012  0.14986662    -0.24400
H1083       H  0.70897521  0.32366516  0.08770796     0.04800
H1084       H  0.75069351  0.32935294  0.07412353     0.08000
H1085       H  0.73806576  0.34194162  0.11560971     0.08000
H1086       H  0.76548411  0.17248586  0.13137982     0.08000
H1087       H  0.75110741  0.18812307  0.17121930     0.08000
H1088       H  0.79352886  0.19205248  0.15940339     0.04800
C1089       C  0.78281228  0.11588339  0.24298884    -0.21000
C1090       C  0.77400215  0.12905671  0.27417749    -0.07600
C1091       C  0.74167111  0.14222202  0.27822071     0.13300
C1092       C  0.71950762  0.14145998  0.25142188    -0.21100
C1093       C  0.72863414  0.12874091  0.22037994    -0.07600
C1094       C  0.76070592  0.11573300  0.21609603     0.13300
C1095       C  0.77147371  0.10075307  0.18361717    -0.24400
H1096       H  0.80735287  0.10577722  0.23938022     0.14500
H1097       H  0.69491057  0.15169186  0.25449205     0.14600
C1098       C  0.73012663  0.15784339  0.31017000    -0.24400
H1099       H  0.79675415  0.09014585  0.18520270     0.04800
H1100       H  0.77172136  0.11993263  0.16390861     0.08000
H1101       H  0.75426408  0.08054385  0.17651129     0.08000
H1102       H  0.74613373  0.17927029  0.31649898     0.08000
H1103       H  0.73066234  0.13923005  0.33047090     0.08000
H1104       H  0.70438149  0.16723462  0.30831306     0.04800
C1105       C  0.62504566  0.22266590  0.25556825    -0.21000
C1106       C  0.62507789  0.23140713  0.22185996    -0.07600
C1107       C  0.62401007  0.26550548  0.21306105     0.13300
C1108       C  0.62278931  0.28948212  0.23810949    -0.21100
C1109       C  0.62324583  0.28081420  0.27180716    -0.07600
C1110       C  0.62426136  0.24671249  0.28065151     0.13300
C1111       C  0.62561850  0.23500516  0.31620406    -0.24400
H1112       H  0.62593324  0.19669756  0.26242917     0.14500
H1113       H  0.62194311  0.31543166  0.23118934     0.14600
C1114       C  0.62540321  0.27740482  0.17756288    -0.24400
H1115       H  0.62718967  0.20757529  0.31803640     0.04800
H1116       H  0.60293671  0.24273980  0.32958962     0.08000
H1117       H  0.64785280  0.24525229  0.32856203     0.08000
H1118       H  0.60322351  0.26891314  0.16381293     0.08000
H1119       H  0.64819461  0.26804668  0.16548290     0.08000
H1120       H  0.62593801  0.30488197  0.17583524     0.04800
C1121       C  0.52392664  0.63073285  0.32501238    -0.21000
C1122       C  0.54029787  0.64767706  0.35043248    -0.07600
C1123       C  0.52153579  0.66277358  0.37591887     0.13300
C1124       C  0.48692560  0.66192808  0.37421505    -0.21100
C1125       C  0.47036715  0.64705523  0.34742146    -0.07600
C1126       C  0.48937648  0.63044260  0.32280205     0.13300
C1127       C  0.47411022  0.61284847  0.29354363    -0.24400
H1128       H  0.53836504  0.61899589  0.30565586     0.14500
H1129       H  0.47277481  0.67409782  0.39349522     0.14600
C1130       C  0.53759111  0.67968978  0.40513214    -0.24400
H1131       H  0.49297378  0.60048394  0.27782976     0.04800
H1132       H  0.46090295  0.63087229  0.27746939     0.08000
H1133       H  0.45687782  0.59336880  0.30240683     0.08000
H1134       H  0.55084264  0.70230820  0.39689756     0.08000
H1135       H  0.55513417  0.66242609  0.41743398     0.08000
H1136       H  0.51909970  0.68753704  0.42390503     0.04800
C1137       C  0.67661799  0.48690239  0.36599056    -0.21000
C1138       C  0.64880497  0.47129326  0.35183260    -0.07600
C1139       C  0.62153040  0.49114676  0.34213087     0.13300
C1140       C  0.62402833  0.52577276  0.34453800    -0.21100
C1141       C  0.65274257  0.54111807  0.35661374    -0.07600
C1142       C  0.67901077  0.52139300  0.36841397     0.13300
C1143       C  0.71046334  0.53637146  0.38179100    -0.24400
H1144       H  0.69741908  0.47213975  0.37427075     0.14500
H1145       H  0.60373089  0.54112211  0.33597854     0.14600
C1146       C  0.58992874  0.47653430  0.32878772    -0.24400
H1147       H  0.72888078  0.51712251  0.38864193     0.04800
H1148       H  0.70501026  0.55097197  0.40444608     0.08000
H1149       H  0.72188981  0.55264733  0.36273805     0.08000
H1150       H  0.57929529  0.45900399  0.34717794     0.08000
H1151       H  0.59477947  0.46352619  0.30504721     0.08000
H1152       H  0.57105622  0.49590425  0.32376692     0.04800
C1153       C  0.51850663  0.88332853  0.15999319    -0.21000
C1154       C  0.53629435  0.86183178  0.13930997    -0.07600
C1155       C  0.51872862  0.84270496  0.11559899     0.13300
C1156       C  0.48402359  0.84320590  0.11567479    -0.21100
C1157       C  0.46620689  0.86223287  0.13866627    -0.07600
C1158       C  0.48386141  0.88394975  0.16001770     0.13300
C1159       C  0.46685425  0.90792411  0.18314765    -0.24400
H1160       H  0.53174840  0.89884211  0.17742067     0.14500
H1161       H  0.47077118  0.82737367  0.09855351     0.14600
C1162       C  0.53600427  0.82165323  0.09000988    -0.24400
H1163       H  0.48469760  0.92498506  0.19522753     0.04800
H1164       H  0.45402442  0.89431039  0.20331031     0.08000
H1165       H  0.44897228  0.92337411  0.16904872     0.08000
H1166       H  0.54876744  0.80052214  0.10212463     0.08000
H1167       H  0.55407314  0.83695154  0.07600728     0.08000
H1168       H  0.51834367  0.81103707  0.07180876     0.04800
C1169       C  0.66346286  0.98804519  0.11923689    -0.21000
C1170       C  0.64354017  0.97142403  0.14241565    -0.07600
C1171       C  0.62153648  0.99023502  0.16231835     0.13300
C1172       C  0.62268120  0.02496680  0.16080276    -0.21100
C1173       C  0.64503674  0.04162177  0.13997573    -0.07600
C1174       C  0.66452593  0.02273993  0.11761385     0.13300
C1175       C  0.68669418  0.03848984  0.09191560    -0.24400
H1176       H  0.67951078  0.97385252  0.10309762     0.14500
H1177       H  0.60687985  0.03916797  0.17717023     0.14600
C1178       C  0.59670361  0.97432002  0.18529552    -0.24400
H1179       H  0.69745309  0.01979654  0.07483981     0.04800
H1180       H  0.70768603  0.05130003  0.10408127     0.08000
H1181       H  0.67229460  0.05629805  0.07662577     0.08000
H1182       H  0.60950723  0.96163873  0.20608237     0.08000
H1183       H  0.58131734  0.95633380  0.17131688     0.08000
H1184       H  0.57978816  0.99290422  0.19644646     0.04800
C1185       C  0.63635723  0.74763695  0.21482559    -0.21000
C1186       C  0.62330077  0.77912297  0.22199581    -0.07600
C1187       C  0.61125227  0.78542993  0.25454134     0.13300
C1188       C  0.61357727  0.76052092  0.27875830    -0.21100
C1189       C  0.62698779  0.72939985  0.27146532    -0.07600
C1190       C  0.63844743  0.72280430  0.23901396     0.13300
C1191       C  0.65450341  0.69034465  0.22992631    -0.24400
H1192       H  0.64579477  0.74247762  0.19021455     0.14500
H1193       H  0.60472393  0.76531085  0.30368347     0.14600
C1194       C  0.59585748  0.81800828  0.26444604    -0.24400
H1195       H  0.66333934  0.69018438  0.20383857     0.04800
H1196       H  0.63654214  0.66975945  0.23258468     0.08000
H1197       H  0.67624260  0.68601729  0.24612996     0.08000
H1198       H  0.57422618  0.82338983  0.24836412     0.08000
H1199       H  0.61430294  0.83824140  0.26245885     0.08000
H1200       H  0.58698228  0.81766530  0.29051846     0.04800
C1201       C  0.87674151  0.52571802  0.16398231    -0.21000
C1202       C  0.85865584  0.54210502  0.13903076    -0.07600
C1203       C  0.84309975  0.52286575  0.11404875     0.13300
C1204       C  0.84485528  0.48813418  0.11584872    -0.21100
C1205       C  0.86136406  0.47196457  0.14192926    -0.07600
C1206       C  0.87794328  0.49112902  0.16610205     0.13300
C1207       C  0.89528023  0.47568826  0.19546561    -0.24400
H1208       H  0.88913999  0.54004832  0.18299645     0.14500
H1209       H  0.83236425  0.47339199  0.09718405     0.14600
C1210       C  0.82384034  0.53822720  0.08589703    -0.24400
H1211       H  0.90536984  0.49465081  0.21264419     0.04800
H1212       H  0.91633494  0.46040313  0.18689342     0.08000
H1213       H  0.87767942  0.46012276  0.20976759     0.08000
H1214       H  0.84011497  0.55489070  0.07125879     0.08000
H1215       H  0.80245311  0.55232457  0.09578905     0.08000
H1216       H  0.81393023  0.51920837  0.06866901     0.04800
C1217       C  0.98500302  0.62621902  0.15186665    -0.21000
C1218       C  0.96863732  0.65308972  0.13685544    -0.07600
C1219       C  0.98789770  0.67788522  0.12077365     0.13300
C1220       C  0.02249293  0.67596444  0.12209425    -0.21100
C1221       C  0.03858637  0.65057170  0.13951456    -0.07600
C1222       C  0.01956246  0.62472359  0.15367636     0.13300
C1223       C  0.03526917  0.59526948  0.17057679    -0.24400
H1224       H  0.97069983  0.60674290  0.16357296     0.14500
H1225       H  0.03710281  0.69549655  0.11083920     0.14600
C1226       C  0.97280003  0.70701538  0.10276356    -0.24400
H1227       H  0.01668718  0.57623067  0.17752258     0.04800
H1228       H  0.04777833  0.60304773  0.19376927     0.08000
H1229       H  0.05334040  0.58345670  0.15357495     0.08000
H1230       H  0.95946006  0.72319299  0.12052156     0.08000
H1231       H  0.95568523  0.69809877  0.08326721     0.08000
H1232       H  0.99179789  0.72259328  0.09039776     0.04800
C1233       C  0.76159478  0.64179953  0.28089138    -0.21000
C1234       C  0.73060889  0.62884960  0.27228177    -0.07600
C1235       C  0.72596003  0.61572131  0.24016592     0.13300
C1236       C  0.75223013  0.61644339  0.21739381    -0.21100
C1237       C  0.78323258  0.63011474  0.22556748    -0.07600
C1238       C  0.78784697  0.64291666  0.25809322     0.13300
C1239       C  0.81989433  0.65835928  0.26924840    -0.24400
H1240       H  0.76504009  0.65193530  0.30554992     0.14500
H1241       H  0.74826700  0.60636883  0.19281776     0.14600
C1242       C  0.69374664  0.59997415  0.22998435    -0.24400
H1243       H  0.81861877  0.66725241  0.29528022     0.04800
H1244       H  0.82586147  0.68009246  0.25340121     0.08000
H1245       H  0.84003237  0.63972685  0.26797572     0.08000
H1246       H  0.67374358  0.61873463  0.22972946     0.08000
H1247       H  0.68731113  0.57977947  0.24758692     0.08000
H1248       H  0.69516403  0.58913895  0.20471638     0.04800
C1249       C  0.78589480  0.76348523  0.13089674    -0.21000
C1250       C  0.77552633  0.73099193  0.12416458    -0.07600
C1251       C  0.74157804  0.72473257  0.11880380     0.13300
C1252       C  0.71919820  0.75127376  0.11937426    -0.21100
C1253       C  0.72945818  0.78395702  0.12601623    -0.07600
C1254       C  0.76343935  0.78994477  0.13246410     0.13300
C1255       C  0.77666900  0.82381440  0.14114745    -0.24400
H1256       H  0.81184561  0.76812057  0.13570688     0.14500
H1257       H  0.69327738  0.74620715  0.11498895     0.14600
C1258       C  0.72864017  0.69037517  0.11185452    -0.24400
H1259       H  0.80386705  0.82355277  0.14486883     0.04800
H1260       H  0.76540373  0.83258051  0.16466814     0.08000
H1261       H  0.77127942  0.84156694  0.12077555     0.08000
H1262       H  0.73243489  0.67420807  0.13383564     0.08000
H1263       H  0.74157310  0.67972906  0.09003910     0.08000
H1264       H  0.70174308  0.69052112  0.10637540     0.04800
C1265       C  0.98489605  0.83578030  0.36904826    -0.21000
C1266       C  0.96926217  0.86072497  0.35021395    -0.07600
C1267       C  0.98912931  0.88501951  0.33444630     0.13300
C1268       C  0.02368651  0.88274010  0.33693854    -0.21100
C1269       C  0.03915037  0.85675109  0.35432578    -0.07600
C1270       C  0.01934627  0.83317312  0.37100102     0.13300
C1271       C  0.03397086  0.80404718  0.38939061    -0.24400
H1272       H  0.97006873  0.81727581  0.38162129     0.14500
H1273       H  0.03884671  0.90096542  0.32432570     0.14600
C1274       C  0.97459518  0.91282341  0.31407332    -0.24400
H1275       H  0.01461713  0.78739667  0.39959683     0.04800
H1276       H  0.04898724  0.81292572  0.41057003     0.08000
H1277       H  0.04957433  0.78914464  0.37235479     0.08000
H1278       H  0.95827763  0.92835350  0.32981811     0.08000
H1279       H  0.96035530  0.90252746  0.29292875     0.08000
H1280       H  0.99400521  0.92925882  0.30362206     0.04800
C1281       C  0.88379867  0.98655099  0.34065289    -0.21000
C1282       C  0.85640326  0.97016287  0.35430949    -0.07600
C1283       C  0.83043741  0.98888943  0.36830641     0.13300
C1284       C  0.83208383  0.02344800  0.36719813    -0.21100
C1285       C  0.85857987  0.04013611  0.35192727    -0.07600
C1286       C  0.88538081  0.02127538  0.33928231     0.13300
C1287       C  0.91549897  0.03702292  0.32384037    -0.24400
H1288       H  0.90377961  0.97199025  0.33022142     0.14500
H1289       H  0.81162648  0.03746663  0.37737459     0.14600
C1290       C  0.79986559  0.97292897  0.38266129    -0.24400
H1291       H  0.93421826  0.01824634  0.31657054     0.04800
H1292       H  0.92736149  0.05406897  0.34186248     0.08000
H1293       H  0.90844729  0.05076995  0.30103770     0.08000
H1294       H  0.80648410  0.95782530  0.40468097     0.08000
H1295       H  0.78785840  0.95705302  0.36369013     0.08000
H1296       H  0.78141997  0.99159751  0.39083421     0.04800
C1297       C  0.75956119  0.72525648  0.38844704    -0.21000
C1298       C  0.72818945  0.73248286  0.37567477    -0.07600
C1299       C  0.72121043  0.76482522  0.36411089     0.13300
C1300       C  0.74622930  0.78868074  0.36447384    -0.21100
C1301       C  0.77819543  0.78130124  0.37597643    -0.07600
C1302       C  0.78464382  0.74922269  0.38911889     0.13300
C1303       C  0.81755875  0.73959867  0.40385967    -0.24400
H1304       H  0.76451659  0.70051036  0.39773547     0.14500
H1305       H  0.74083550  0.81312487  0.35470134     0.14600
C1306       C  0.68814918  0.77411004  0.34953085    -0.24400
H1307       H  0.81722668  0.71402487  0.41411131     0.04800
H1308       H  0.82390197  0.75663560  0.42450547     0.08000
H1309       H  0.83704641  0.74037382  0.38450321     0.08000
H1310       H  0.66838679  0.77128521  0.36838530     0.08000
H1311       H  0.68295068  0.75823121  0.32773218     0.08000
H1312       H  0.68757278  0.80026706  0.34097135     0.04800
C1313       C  0.74749338  0.86972287  0.28143095    -0.21000
C1314       C  0.77824120  0.88241060  0.27147091    -0.07600
C1315       C  0.78171984  0.89537267  0.23914721     0.13300
C1316       C  0.75436735  0.89532437  0.21769608    -0.21100
C1317       C  0.72344318  0.88231367  0.22736194    -0.07600
C1318       C  0.72020469  0.86906973  0.25986968     0.13300
C1319       C  0.68854589  0.85369357  0.27224531    -0.24400
H1320       H  0.74500714  0.85954552  0.30622136     0.14500
H1321       H  0.75742779  0.90542225  0.19296623     0.14600
C1322       C  0.81381142  0.91029384  0.22742755    -0.24400
H1323       H  0.69086810  0.84466785  0.29817166     0.04800
H1324       H  0.68185559  0.83208793  0.25659517     0.08000
H1325       H  0.66839357  0.87235742  0.27181709     0.08000
H1326       H  0.83338227  0.89110119  0.22674461     0.08000
H1327       H  0.82137843  0.93054132  0.24443015     0.08000
H1328       H  0.81161395  0.92084065  0.20205263     0.04800
C1329       C  0.89331170  0.74982358  0.27693246    -0.21000
C1330       C  0.88085303  0.78148608  0.27004135    -0.07600
C1331       C  0.87023991  0.78912897  0.23747215     0.13300
C1332       C  0.87184015  0.76477980  0.21292903    -0.21100
C1333       C  0.88356462  0.73272012  0.21972687    -0.07600
C1334       C  0.89522692  0.72537727  0.25223463     0.13300
C1335       C  0.90985765  0.69223541  0.26152940    -0.24400
H1336       H  0.90178077  0.74427361  0.30184392     0.14500
H1337       H  0.86296159  0.77080732  0.18828569     0.14600
C1338       C  0.85539678  0.82221931  0.22850623    -0.24400
H1339       H  0.91838130  0.69167373  0.28771855     0.04800
H1340       H  0.93158225  0.68690951  0.24558474     0.08000
H1341       H  0.89113755  0.67240163  0.25873813     0.08000
H1342       H  0.87387696  0.84222277  0.23183204     0.08000
H1343       H  0.83339519  0.82680864  0.24422575     0.08000
H1344       H  0.84713973  0.82316217  0.20223695     0.04800
C1345       C  0.17680456  0.37448520  0.97873110    -0.21000
C1346       C  0.14956584  0.36191754  0.96160140    -0.07600
C1347       C  0.12224307  0.34942521  0.97956422     0.13300
C1348       C  0.12364002  0.34851975  0.01433848    -0.21100
C1349       C  0.15185345  0.35918974  0.03165498    -0.07600
C1350       C  0.17868761  0.37303190  0.01335278     0.13300
C1351       C  0.21006962  0.38555241  0.02932640    -0.24400
H1352       H  0.19766147  0.38396213  0.96473149     0.14500
H1353       H  0.10282629  0.33850140  0.02797785     0.14600
C1354       C  0.09143239  0.33730822  0.96235105    -0.24400
H1355       H  0.22781728  0.39549176  0.01079529     0.04800
H1356       H  0.22278214  0.36501715  0.04254291     0.08000
H1357       H  0.20427920  0.40604292  0.04673046     0.08000
H1358       H  0.09682539  0.31463838  0.94781446     0.08000
H1359       H  0.08176945  0.35694006  0.94561039     0.08000
H1360       H  0.07164807  0.33093212  0.98035769     0.04800
C1361       C  0.33952412  0.12359633  0.98007505    -0.21000
C1362       C  0.36112004  0.14485906  0.96313946    -0.07600
C1363       C  0.38541634  0.16244461  0.98129640     0.13300
C1364       C  0.38450360  0.16159721  0.01599288    -0.21100
C1365       C  0.36022191  0.14348456  0.03303876    -0.07600
C1366       C  0.33878508  0.12247059  0.01477429     0.13300
C1367       C  0.31485007  0.09889110  0.03119074    -0.24400
H1368       H  0.32185050  0.10898364  0.96615448     0.14500
H1369       H  0.40200388  0.17651169  0.02979422     0.14600
C1370       C  0.41254370  0.18199874  0.96461367    -0.24400
H1371       H  0.30277096  0.08230035  0.01287648     0.04800
H1372       H  0.29487724  0.11284039  0.04382578     0.08000
H1373       H  0.32817051  0.08295712  0.04928316     0.08000
H1374       H  0.40224610  0.20409404  0.95188955     0.08000
H1375       H  0.42567786  0.16601180  0.94650720     0.08000
H1376       H  0.43108074  0.19108947  0.98276704     0.04800
C1377       C  0.28652879  0.26235285  0.87720838    -0.21000
C1378       C  0.27779955  0.22870252  0.87642437    -0.07600
C1379       C  0.24383611  0.22008564  0.87512763     0.13300
C1380       C  0.21990745  0.24528262  0.87526289    -0.21100
C1381       C  0.22867200  0.27895934  0.87568431    -0.07600
C1382       C  0.26270834  0.28754410  0.87623303     0.13300
C1383       C  0.27469994  0.32292909  0.87438864    -0.24400
H1384       H  0.31241466  0.26913345  0.87801148     0.14500
H1385       H  0.19402351  0.23851879  0.87456906     0.14600
C1386       C  0.23225116  0.18467261  0.87225721    -0.24400
H1387       H  0.30208897  0.32447319  0.87348877     0.04800
H1388       H  0.26655531  0.33689037  0.89662160     0.08000
H1389       H  0.26518073  0.33488230  0.85150202     0.08000
H1390       H  0.23956288  0.17042421  0.89465826     0.08000
H1391       H  0.24298773  0.17315619  0.84972231     0.08000
H1392       H  0.20494301  0.18297200  0.87007950     0.04800
C1393       C  0.37280944  0.32882450  0.51520507    -0.21000
C1394       C  0.35893939  0.35609980  0.53189942    -0.07600
C1395       C  0.34762831  0.38365161  0.51307735     0.13300
C1396       C  0.34931661  0.38231350  0.47837663    -0.21100
C1397       C  0.36176847  0.35435771  0.46201036    -0.07600
C1398       C  0.37396175  0.32735378  0.48063583     0.13300
C1399       C  0.38624178  0.29596062  0.46445172    -0.24400
H1400       H  0.38174293  0.30767725  0.52918884     0.14500
H1401       H  0.33995170  0.40288603  0.46378659     0.14600
C1402       C  0.33314498  0.41428957  0.52879007    -0.24400
H1403       H  0.39310630  0.27677915  0.48301699     0.04800
H1404       H  0.40857065  0.30129973  0.44939232     0.08000
H1405       H  0.36661314  0.28538702  0.44841151     0.08000
H1406       H  0.35132646  0.42545542  0.54610937     0.08000
H1407       H  0.31005958  0.40789606  0.54220820     0.08000
H1408       H  0.32671996  0.43343500  0.51002188     0.04800
C1409       C  0.36839120  0.28600278  0.75487303    -0.21000
C1410       C  0.38300389  0.27917879  0.72399402    -0.07600
C1411       C  0.39642285  0.24708725  0.71827580     0.13300
C1412       C  0.39475817  0.22319774  0.74351751    -0.21100
C1413       C  0.38013890  0.23027006  0.77413496    -0.07600
C1414       C  0.36647739  0.26197368  0.77982433     0.13300
C1415       C  0.34809699  0.27018498  0.81127936    -0.24400
H1416       H  0.35748344  0.31011567  0.75937465     0.14500
H1417       H  0.40495105  0.19869097  0.73935955     0.14600
C1418       C  0.41251744  0.23731611  0.68597284    -0.24400
H1419       H  0.33757280  0.29561524  0.81069848     0.04800
H1420       H  0.36494616  0.26876882  0.83293395     0.08000
H1421       H  0.32726251  0.25260420  0.81445895     0.08000
H1422       H  0.43352518  0.25415709  0.68051266     0.08000
H1423       H  0.39417752  0.23823909  0.66553407     0.08000
H1424       H  0.42241964  0.21164559  0.68680548     0.04800
C1425       C  0.28666976  0.38912513  0.75131165    -0.21000
C1426       C  0.27770236  0.37521634  0.72057185    -0.07600
C1427       C  0.24520145  0.36240024  0.71667465     0.13300
C1428       C  0.22288630  0.36473893  0.74313743    -0.21100
C1429       C  0.23198377  0.37881077  0.77356238    -0.07600
C1430       C  0.26428953  0.39129063  0.77773256     0.13300
C1431       C  0.27587158  0.40817338  0.80899932    -0.24400
H1432       H  0.31135402  0.39892103  0.75483707     0.14500
H1433       H  0.19814683  0.35479065  0.74031578     0.14600
C1434       C  0.23351910  0.34563499  0.68530718    -0.24400
H1435       H  0.29596840  0.39336248  0.82052564     0.04800
H1436       H  0.28560975  0.43314541  0.80274313     0.08000
H1437       H  0.25607966  0.41185990  0.82754268     0.08000
H1438       H  0.24925491  0.32373853  0.67991274     0.08000
H1439       H  0.23426808  0.36335380  0.66422311     0.08000
H1440       H  0.20765730  0.33665100  0.68746431     0.04800
C1441       C  0.13037803  0.17028478  0.51797754    -0.21000
C1442       C  0.14753151  0.14446512  0.53411648    -0.07600
C1443       C  0.16061444  0.11829286  0.51466744     0.13300
C1444       C  0.15833817  0.12018066  0.47992277    -0.21100
C1445       C  0.14313853  0.14718812  0.46398493    -0.07600
C1446       C  0.12812158  0.17211752  0.48337370     0.13300
C1447       C  0.11129334  0.20180157  0.46801308    -0.24400
H1448       H  0.11950899  0.19008269  0.53244764     0.14500
H1449       H  0.16937006  0.10080708  0.46496682     0.14600
C1450       C  0.17752185  0.08859189  0.52982791    -0.24400
H1451       H  0.10207657  0.21937996  0.48706177     0.04800
H1452       H  0.08969827  0.19363774  0.45314958     0.08000
H1453       H  0.12896516  0.21545112  0.45194655     0.08000
H1454       H  0.16032692  0.07575506  0.54703288     0.08000
H1455       H  0.20008930  0.09646983  0.54332253     0.08000
H1456       H  0.18525635  0.07036935  0.51071925     0.04800
C1457       C  0.12874596  0.21986296  0.75762478    -0.21000
C1458       C  0.13091713  0.22800860  0.72388819    -0.07600
C1459       C  0.13310919  0.26183269  0.71444932     0.13300
C1460       C  0.13266628  0.28632123  0.73895650    -0.21100
C1461       C  0.13031466  0.27827014  0.77271190    -0.07600
C1462       C  0.12843370  0.24436128  0.78219853     0.13300
C1463       C  0.12700243  0.23326300  0.81794207    -0.24400
H1464       H  0.12725407  0.19400853  0.76487783     0.14500
H1465       H  0.13439089  0.31211912  0.73157232     0.14600
C1466       C  0.13743636  0.27269046  0.67890463    -0.24400
H1467       H  0.12701661  0.20582688  0.82030967     0.04800
H1468       H  0.10398761  0.24240188  0.82977169     0.08000
H1469       H  0.14893570  0.24261399  0.83148265     0.08000
H1470       H  0.11548209  0.26576439  0.66397439     0.08000
H1471       H  0.16003499  0.26111811  0.66861036     0.08000
H1472       H  0.14042899  0.29997079  0.67665239     0.04800
C1473       C  0.26364087  0.13058170  0.71566457    -0.21000
C1474       C  0.23065699  0.12381265  0.72419735    -0.07600
C1475       C  0.22280484  0.11778885  0.75809397     0.13300
C1476       C  0.24793141  0.11927217  0.78202798    -0.21100
C1477       C  0.28070638  0.12644645  0.77341647    -0.07600
C1478       C  0.28867878  0.13210853  0.73963733     0.13300
C1479       C  0.32305440  0.14133838  0.72848336    -0.24400
H1480       H  0.26994745  0.13537219  0.68997032     0.14500
H1481       H  0.24187625  0.11487591  0.80786762     0.14600
C1482       C  0.18818552  0.11033932  0.76987117    -0.24400
H1483       H  0.32418015  0.14627666  0.70138860     0.04800
H1484       H  0.34053629  0.12081348  0.73376847     0.08000
H1485       H  0.33106199  0.16425707  0.74130922     0.08000
H1486       H  0.17896871  0.08735468  0.75793156     0.08000
H1487       H  0.17160009  0.13148676  0.76403162     0.08000
H1488       H  0.18711594  0.10636911  0.79712638     0.04800
C1489       C  0.25964395  0.21764133  0.63580040    -0.21000
C1490       C  0.22905008  0.22640664  0.62200642    -0.07600
C1491       C  0.22493992  0.25822656  0.60805239     0.13300
C1492       C  0.25159989  0.28047056  0.60828361    -0.21100
C1493       C  0.28237571  0.27203002  0.62239772    -0.07600
C1494       C  0.28623806  0.23997546  0.63660151     0.13300
C1495       C  0.31778058  0.22889093  0.65324746    -0.24400
H1496       H  0.26250086  0.19323617  0.64675845     0.14500
H1497       H  0.24815260  0.30479885  0.59740354     0.14600
C1498       C  0.19293696  0.26852229  0.59186350    -0.24400
H1499       H  0.31579521  0.20332145  0.66332538     0.04800
H1500       H  0.32363832  0.24552389  0.67436563     0.08000
H1501       H  0.33836092  0.22897709  0.63505470     0.08000
H1502       H  0.17277631  0.26921330  0.61043950     0.08000
H1503       H  0.18645840  0.25071541  0.57192367     0.08000
H1504       H  0.19470097  0.29359861  0.58058988     0.04800
C1505       C  0.33099154  0.52022072  0.62478510    -0.21000
C1506       C  0.35672874  0.53724817  0.64050587    -0.07600
C1507       C  0.38301634  0.51895379  0.65476885     0.13300
C1508       C  0.38190754  0.48416854  0.65434777    -0.21100
C1509       C  0.35503329  0.46690443  0.64054501    -0.07600
C1510       C  0.32945880  0.48546849  0.62483003     0.13300
C1511       C  0.29994481  0.46947929  0.60848672    -0.24400
H1512       H  0.31101499  0.53430040  0.61365838     0.14500
H1513       H  0.40186694  0.47042341  0.66587097     0.14600
C1514       C  0.41257941  0.53575015  0.67016195    -0.24400
H1515       H  0.28341203  0.48802637  0.59663642     0.04800
H1516       H  0.28498695  0.45599899  0.62723041     0.08000
H1517       H  0.30829490  0.45226451  0.58876794     0.08000
H1518       H  0.40518591  0.54928939  0.69289899     0.08000
H1519       H  0.42377272  0.55325364  0.65208603     0.08000
H1520       H  0.43190000  0.51760370  0.67750649     0.04800
C1521       C  0.34874467  0.62338756  0.47793441    -0.21000
C1522       C  0.36426724  0.64935512  0.46057977    -0.07600
C1523       C  0.38294146  0.67287424  0.47900003     0.13300
C1524       C  0.38238239  0.67172923  0.51385337    -0.21100
C1525       C  0.36414575  0.64764807  0.53105415    -0.07600
C1526       C  0.34865174  0.62203791  0.51276896     0.13300
C1527       C  0.33239121  0.59284851  0.52958923    -0.24400
H1528       H  0.33562262  0.60441620  0.46424963     0.14500
H1529       H  0.39520925  0.69073963  0.52778259     0.14600
C1530       C  0.40350475  0.69948038  0.46263386    -0.24400
H1531       H  0.32457711  0.57373301  0.51141491     0.04800
H1532       H  0.30992672  0.60088574  0.54310767     0.08000
H1533       H  0.35002883  0.58103024  0.54710336     0.08000
H1534       H  0.38733468  0.71740194  0.44945431     0.08000
H1535       H  0.42124775  0.68803641  0.44502657     0.08000
H1536       H  0.41810335  0.71381841  0.48100507     0.04800
C1537       C  0.12683578  0.52463841  0.83684206    -0.21000
C1538       C  0.15232966  0.54038476  0.85450131    -0.07600
C1539       C  0.17634375  0.52068978  0.87071701     0.13300
C1540       C  0.17442978  0.48611673  0.86837338    -0.21100
C1541       C  0.14971848  0.47017574  0.84966276    -0.07600
C1542       C  0.12517012  0.48993578  0.83409945     0.13300
C1543       C  0.09741333  0.47512850  0.81412775    -0.24400
H1544       H  0.10836729  0.53969657  0.82446429     0.14500
H1545       H  0.19323824  0.47146201  0.88067977     0.14600
C1546       C  0.20521132  0.53561430  0.88910628    -0.24400
H1547       H  0.08071169  0.49442746  0.80382813     0.04800
H1548       H  0.08235185  0.45878603  0.83031067     0.08000
H1549       H  0.10751899  0.46085759  0.79290483     0.08000
H1550       H  0.19621369  0.55015033  0.91064045     0.08000
H1551       H  0.21964757  0.55181944  0.87217299     0.08000
H1552       H  0.22228186  0.51635774  0.89885584     0.04800
C1553       C  0.17071063  0.62741704  0.98063883    -0.21000
C1554       C  0.14912214  0.64955822  0.96454653    -0.07600
C1555       C  0.12601855  0.66761615  0.98385646     0.13300
C1556       C  0.12707059  0.66483868  0.01851060    -0.21100
C1557       C  0.15033338  0.64454260  0.03458783    -0.07600
C1558       C  0.17174162  0.62467283  0.01526659     0.13300
C1559       C  0.19689289  0.60167338  0.03061137    -0.24400
H1560       H  0.18780834  0.61277434  0.96605599     0.14500
H1561       H  0.11008680  0.67944754  0.03327861     0.14600
C1562       C  0.10074480  0.69059995  0.96870246    -0.24400
H1563       H  0.21196049  0.58879586  0.01154799     0.04800
H1564       H  0.18419185  0.58231732  0.04549214     0.08000
H1565       H  0.21408413  0.61595054  0.04660271     0.08000
H1566       H  0.08425194  0.67640778  0.95193341     0.08000
H1567       H  0.11328309  0.71075555  0.95477974     0.08000
H1568       H  0.08490846  0.70244842  0.98780908     0.04800
C1569       C  0.28628077  0.61550499  0.75340353    -0.21000
C1570       C  0.27843134  0.62671682  0.72142014    -0.07600
C1571       C  0.24573722  0.63713433  0.71457010     0.13300
C1572       C  0.22215248  0.63681160  0.74006951    -0.21100
C1573       C  0.22997932  0.62618109  0.77240972    -0.07600
C1574       C  0.26257619  0.61458485  0.77886549     0.13300
C1575       C  0.27298152  0.60078979  0.81209685    -0.24400
H1576       H  0.31126334  0.60718550  0.75844963     0.14500
H1577       H  0.19742627  0.64558982  0.73465046     0.14600
C1578       C  0.23569060  0.65019877  0.68096982    -0.24400
H1579       H  0.29901713  0.59206896  0.81190674     0.04800
H1580       H  0.25719760  0.57925634  0.81868478     0.08000
H1581       H  0.27106454  0.62007416  0.83151887     0.08000
H1582       H  0.23844529  0.63058173  0.66192391     0.08000
H1583       H  0.25117374  0.67192749  0.67443402     0.08000
H1584       H  0.20948831  0.65837671  0.68053995     0.04800
C1585       C  0.35041747  0.98687666  0.87677415    -0.21000
C1586       C  0.36511444  0.97040945  0.84981123    -0.07600
C1587       C  0.38210547  0.98956168  0.82547280     0.13300
C1588       C  0.38158920  0.02417473  0.82762429    -0.21100
C1589       C  0.36441270  0.04044131  0.85291131    -0.07600
C1590       C  0.34981730  0.02159840  0.87866383     0.13300
C1591       C  0.33396007  0.03774649  0.90841566    -0.24400
H1592       H  0.33830984  0.97259877  0.89604830     0.14500
H1593       H  0.39326487  0.03873682  0.80826664     0.14600
C1594       C  0.40026967  0.97444463  0.79648174    -0.24400
H1595       H  0.32648540  0.01916799  0.92734680     0.04800
H1596       H  0.31135991  0.05139322  0.90094528     0.08000
H1597       H  0.35171933  0.05506306  0.92023948     0.08000
H1598       H  0.38261646  0.96163496  0.77978538     0.08000
H1599       H  0.41924075  0.95682776  0.80557573     0.08000
H1600       H  0.41323408  0.99342374  0.78131754     0.04800
C1601       C  0.34080403  0.88119968  0.97558278    -0.21000
C1602       C  0.36347448  0.85972051  0.96005671    -0.07600
C1603       C  0.38461892  0.84023902  0.98017630     0.13300
C1604       C  0.38130591  0.84167423  0.01479344    -0.21100
C1605       C  0.35715792  0.86150672  0.03020534    -0.07600
C1606       C  0.33711742  0.88218643  0.01017611     0.13300
C1607       C  0.31089938  0.90444520  0.02459236    -0.24400
H1608       H  0.32488131  0.89666723  0.96046690     0.14500
H1609       H  0.39720215  0.82622821  0.02996928     0.14600
C1610       C  0.40985194  0.81680275  0.96577420    -0.24400
H1611       H  0.29707012  0.91807581  0.00505690     0.04800
H1612       H  0.32264545  0.92313844  0.04088985     0.08000
H1613       H  0.29276480  0.88952497  0.03890395     0.08000
H1614       H  0.42797947  0.83083134  0.95058484     0.08000
H1615       H  0.39736132  0.79782286  0.95030733     0.08000
H1616       H  0.42388895  0.80349483  0.98538286     0.04800
C1617       C  0.39016299  0.74601488  0.77876739    -0.21000
C1618       C  0.38324522  0.77890695  0.77003415    -0.07600
C1619       C  0.37603960  0.78665058  0.73649269     0.13300
C1620       C  0.37615084  0.76130973  0.71280887    -0.21100
C1621       C  0.38274275  0.72820142  0.72145671    -0.07600
C1622       C  0.38998923  0.72052769  0.75515076     0.13300
C1623       C  0.39713319  0.68576643  0.76704785    -0.24400
H1624       H  0.39561884  0.74016465  0.80445364     0.14500
H1625       H  0.37034049  0.76749657  0.68729421     0.14600
C1626       C  0.36642613  0.82105938  0.72539836    -0.24400
H1627       H  0.40213909  0.68486936  0.79412922     0.04800
H1628       H  0.41935785  0.67591188  0.75430157     0.08000
H1629       H  0.37549587  0.66954760  0.76228100     0.08000
H1630       H  0.38703922  0.83865717  0.72962625     0.08000
H1631       H  0.34406756  0.82910113  0.73906397     0.08000
H1632       H  0.36043082  0.82201208  0.69852554     0.04800
C1633       C  0.29264914  0.74846464  0.87060558    -0.21000
C1634       C  0.28221599  0.78138236  0.87484553    -0.07600
C1635       C  0.24858547  0.78766193  0.88196709     0.13300
C1636       C  0.22624107  0.76104227  0.88327699    -0.21100
C1637       C  0.23630421  0.72812995  0.87737187    -0.07600
C1638       C  0.27034703  0.72184691  0.87155982     0.13300
C1639       C  0.28375443  0.68747205  0.86580686    -0.24400
H1640       H  0.31847203  0.74354400  0.86543000     0.14500
H1641       H  0.20043261  0.76626608  0.88813416     0.14600
C1642       C  0.23600847  0.82216481  0.88880246    -0.24400
H1643       H  0.31109082  0.68735345  0.86333941     0.04800
H1644       H  0.27350505  0.67745520  0.84236903     0.08000
H1645       H  0.27728537  0.67109479  0.88699806     0.08000
H1646       H  0.23822453  0.83773239  0.86619591     0.08000
H1647       H  0.25036518  0.83342620  0.90937706     0.08000
H1648       H  0.20955511  0.82209577  0.89613558     0.04800
C1649       C  0.12731303  0.84515670  0.51579611    -0.21000
C1650       C  0.15453123  0.85919484  0.53230627    -0.07600
C1651       C  0.17947711  0.87515250  0.51322672     0.13300
C1652       C  0.17752323  0.87433436  0.47859479    -0.21100
C1653       C  0.15169265  0.85802182  0.46227562    -0.07600
C1654       C  0.12552240  0.84438994  0.48108672     0.13300
C1655       C  0.09534720  0.82960113  0.46494413    -0.24400
H1656       H  0.10760879  0.83382804  0.53004768     0.14500
H1657       H  0.19723916  0.88535780  0.46408136     0.14600
C1658       C  0.20871100  0.89269218  0.52849017    -0.24400
H1659       H  0.07626061  0.82269217  0.48350832     0.04800
H1660       H  0.10200116  0.80675019  0.45123571     0.08000
H1661       H  0.08421101  0.84795865  0.44769259     0.08000
H1662       H  0.22453458  0.87469646  0.54200210     0.08000
H1663       H  0.19999338  0.91240622  0.54553666     0.08000
H1664       H  0.22452961  0.90477998  0.50947783     0.04800
C1665       C  0.13104520  0.98354762  0.66856860    -0.21000
C1666       C  0.14703281  0.96779753  0.64187879    -0.07600
C1667       C  0.15901027  0.98749100  0.61527989     0.13300
C1668       C  0.15740218  0.02212800  0.61781794    -0.21100
C1669       C  0.14400870  0.03764439  0.64590190    -0.07600
C1670       C  0.12964415  0.01806564  0.67114544     0.13300
C1671       C  0.11475554  0.03301470  0.70199241    -0.24400
H1672       H  0.12087233  0.96882958  0.68861734     0.14500
H1673       H  0.16775606  0.03730103  0.59818305     0.14600
C1674       C  0.17417271  0.97274296  0.58448131    -0.24400
H1675       H  0.10612078  0.01376753  0.71971409     0.04800
H1676       H  0.09307673  0.04835645  0.69528414     0.08000
H1677       H  0.13341465  0.04846223  0.71495707     0.08000
H1678       H  0.15636675  0.95553028  0.57258081     0.08000
H1679       H  0.19730893  0.95941462  0.59088591     0.08000
H1680       H  0.18065334  0.99206704  0.56592566     0.04800
C1681       C  0.22875008  0.75247412  0.60579493    -0.21000
C1682       C  0.23671038  0.78229395  0.62209515    -0.07600
C1683       C  0.26832334  0.78541603  0.63714540     0.13300
C1684       C  0.29066094  0.75883203  0.63521984    -0.21100
C1685       C  0.28212370  0.72904040  0.61953219    -0.07600
C1686       C  0.25086514  0.72581782  0.60456605     0.13300
C1687       C  0.24097071  0.69463413  0.58656537    -0.24400
H1688       H  0.20482492  0.74969432  0.59407784     0.14500
H1689       H  0.31471172  0.76092102  0.64688586     0.14600
C1690       C  0.27875894  0.81597508  0.65599147    -0.24400
H1691       H  0.21631739  0.69710093  0.57470692     0.04800
H1692       H  0.23967670  0.67354688  0.60421736     0.08000
H1693       H  0.25927831  0.68902894  0.56683569     0.08000
H1694       H  0.26153977  0.82046560  0.67696067     0.08000
H1695       H  0.27908119  0.83777362  0.63915538     0.08000
H1696       H  0.30396403  0.81336273  0.66659112     0.04800
C1697       C  0.12375375  0.78656290  0.75276656    -0.21000
C1698       C  0.13317266  0.77592348  0.72082940    -0.07600
C1699       C  0.14332338  0.74251641  0.71642377     0.13300
C1700       C  0.14328965  0.72106006  0.74377789    -0.21100
C1701       C  0.13407831  0.73194644  0.77545173    -0.07600
C1702       C  0.12425364  0.76511487  0.78010750     0.13300
C1703       C  0.11335846  0.77783622  0.81352123    -0.24400
H1704       H  0.11619379  0.81202624  0.75662995     0.14500
H1705       H  0.15102677  0.69553278  0.74053393     0.14600
C1706       C  0.15439224  0.72887125  0.68339533    -0.24400
H1707       H  0.10475430  0.80394862  0.81216395     0.04800
H1708       H  0.13428980  0.77693124  0.83128514     0.08000
H1709       H  0.09263790  0.76249500  0.82304769     0.08000
H1710       H  0.17681931  0.74217145  0.67474351     0.08000
H1711       H  0.13423620  0.73142563  0.66488018     0.08000
H1712       H  0.16081737  0.70214578  0.68496503     0.04800
C1713       C  0.25953707  0.89572345  0.71616593    -0.21000
C1714       C  0.22930526  0.88077900  0.72524158    -0.07600
C1715       C  0.22657225  0.86616927  0.75722350     0.13300
C1716       C  0.25376001  0.86715364  0.77877891    -0.21100
C1717       C  0.28384333  0.88154661  0.76931834    -0.07600
C1718       C  0.28682317  0.89609923  0.73767572     0.13300
C1719       C  0.31833587  0.91282978  0.72686078    -0.24400
H1720       H  0.26211198  0.90697982  0.69187924     0.14500
H1721       H  0.25177768  0.85589583  0.80315592     0.14600
C1722       C  0.19566625  0.84883572  0.76901073    -0.24400
H1723       H  0.31586155  0.92427113  0.70190117     0.04800
H1724       H  0.33870638  0.89446366  0.72567341     0.08000
H1725       H  0.32491462  0.93267429  0.74473712     0.08000
H1726       H  0.18994089  0.82762724  0.75246504     0.08000
H1727       H  0.17464442  0.86651042  0.76942153     0.08000
H1728       H  0.19846978  0.83877125  0.79453199     0.04800
C1729       C  0.52399000  0.33971707  0.61896386    -0.21000
C1730       C  0.54039884  0.36002850  0.64198727    -0.07600
C1731       C  0.52117138  0.37979667  0.66375792     0.13300
C1732       C  0.48653409  0.37821468  0.66210284    -0.21100
C1733       C  0.47010102  0.35695150  0.63995227    -0.07600
C1734       C  0.48934499  0.33757080  0.61780554     0.13300
C1735       C  0.47407655  0.31347127  0.59367467    -0.24400
H1736       H  0.53845217  0.32456332  0.60220481     0.14500
H1737       H  0.47214425  0.39318025  0.67908795     0.14600
C1738       C  0.53652616  0.40160546  0.68993431    -0.24400
H1739       H  0.49305536  0.30008768  0.57897366     0.04800
H1740       H  0.45800070  0.32694024  0.57585764     0.08000
H1741       H  0.45948633  0.29456566  0.60734727     0.08000
H1742       H  0.55183120  0.42111605  0.67803960     0.08000
H1743       H  0.55193531  0.38640111  0.70694080     0.08000
H1744       H  0.51758354  0.41432750  0.70525711     0.04800
C1745       C  0.62606225  0.35104530  0.51384333    -0.21000
C1746       C  0.65404858  0.36294442  0.53068952    -0.07600
C1747       C  0.68007024  0.37758462  0.51192162     0.13300
C1748       C  0.67804411  0.37786737  0.47722701    -0.21100
C1749       C  0.65130274  0.36353596  0.46057901    -0.07600
C1750       C  0.62439293  0.35097052  0.47912199     0.13300
C1751       C  0.59366974  0.33770689  0.46266495    -0.24400
H1752       H  0.60567529  0.34064452  0.52783138     0.14500
H1753       H  0.69842153  0.38785309  0.46289189     0.14600
C1754       C  0.71059882  0.39234219  0.52757204    -0.24400
H1755       H  0.57411776  0.33165827  0.48103645     0.04800
H1756       H  0.59935852  0.31457447  0.44899673     0.08000
H1757       H  0.58353353  0.35657661  0.44534189     0.08000
H1758       H  0.72489381  0.37280776  0.54066378     0.08000
H1759       H  0.70348633  0.41229757  0.54508333     0.08000
H1760       H  0.72736264  0.40353282  0.50883129     0.04800
C1761       C  0.52298429  0.17843237  0.86663929    -0.21000
C1762       C  0.53881724  0.15123101  0.85153224    -0.07600
C1763       C  0.51920468  0.12426613  0.84044943     0.13300
C1764       C  0.48470547  0.12627964  0.84309188    -0.21100
C1765       C  0.46910728  0.15426748  0.85649268    -0.07600
C1766       C  0.48852188  0.18040828  0.86911065     0.13300
C1767       C  0.47322791  0.21133373  0.88344847    -0.24400
H1768       H  0.53755120  0.19904900  0.87567700     0.14500
H1769       H  0.46962600  0.10613511  0.83375793     0.14600
C1770       C  0.53387597  0.09344684  0.82534881    -0.24400
H1771       H  0.49220832  0.22980824  0.89075135     0.04800
H1772       H  0.45879030  0.20501514  0.90597987     0.08000
H1773       H  0.45681149  0.22317075  0.86478982     0.08000
H1774       H  0.55115339  0.08173323  0.84327192     0.08000
H1775       H  0.54696792  0.09973781  0.80197964     0.08000
H1776       H  0.51466961  0.07480667  0.81911968     0.04800
C1777       C  0.63189160  0.17609624  0.97602261    -0.21000
C1778       C  0.64894016  0.15087556  0.95939535    -0.07600
C1779       C  0.66418045  0.12541031  0.97819763     0.13300
C1780       C  0.66351249  0.12703815  0.01301670    -0.21100
C1781       C  0.64836081  0.15355938  0.02978071    -0.07600
C1782       C  0.63148829  0.17806007  0.01073476     0.13300
C1783       C  0.61333163  0.20689429  0.02613826    -0.24400
H1784       H  0.61990925  0.19541210  0.96166215     0.14500
H1785       H  0.67585345  0.10782305  0.02718284     0.14600
C1786       C  0.68087943  0.09619588  0.96197310    -0.24400
H1787       H  0.60058962  0.22238919  0.00725550     0.04800
H1788       H  0.63097096  0.22328452  0.03934326     0.08000
H1789       H  0.59417902  0.19764317  0.04350980     0.08000
H1790       H  0.70322203  0.10441248  0.94832223     0.08000
H1791       H  0.66345428  0.08388012  0.94465074     0.08000
H1792       H  0.68897609  0.07747141  0.98050843     0.04800
C1793       C  0.64514473  0.22320416  0.74116529    -0.21000
C1794       C  0.62739964  0.23031026  0.77003141    -0.07600
C1795       C  0.60924250  0.25993619  0.77239796     0.13300
C1796       C  0.60990028  0.28235873  0.74579310    -0.21100
C1797       C  0.62839310  0.27583929  0.71689955    -0.07600
C1798       C  0.64618056  0.24555381  0.71459601     0.13300
C1799       C  0.66729719  0.23673439  0.68506830    -0.24400
H1800       H  0.65902074  0.20026365  0.73982719     0.14500
H1801       H  0.59598791  0.30523428  0.74774534     0.14600
C1802       C  0.58862857  0.26749005  0.80257491    -0.24400
H1803       H  0.68016950  0.21262682  0.68843411     0.04800
H1804       H  0.68654361  0.25598938  0.68137548     0.08000
H1805       H  0.65167741  0.23455159  0.66254912     0.08000
H1806       H  0.60470896  0.26931984  0.82479868     0.08000
H1807       H  0.57019894  0.24746399  0.80645340     0.08000
H1808       H  0.57510246  0.29130441  0.79989367     0.04800
C1809       C  0.98690672  0.37615522  0.82641525    -0.21000
C1810       C  0.97020801  0.35884794  0.85144814    -0.07600
C1811       C  0.98863198  0.34337888  0.87699939     0.13300
C1812       C  0.02326259  0.34429148  0.87579022    -0.21100
C1813       C  0.04013549  0.35967491  0.84944295    -0.07600
C1814       C  0.02144942  0.37652743  0.82468119     0.13300
C1815       C  0.03704014  0.39446919  0.79573615    -0.24400
H1816       H  0.97275155  0.38815400  0.80696141     0.14500
H1817       H  0.03718955  0.33183682  0.89510679     0.14600
C1818       C  0.97218451  0.32615363  0.90583832    -0.24400
H1819       H  0.01840012  0.40739328  0.78014975     0.04800
H1820       H  0.05004391  0.37657591  0.77942970     0.08000
H1821       H  0.05451873  0.41349877  0.80488451     0.08000
H1822       H  0.95888339  0.30373278  0.89723265     0.08000
H1823       H  0.95463831  0.34339214  0.91809207     0.08000
H1824       H  0.99042678  0.31794974  0.92474039     0.04800
C1825       C  0.84557393  0.38318639  0.97671833    -0.21000
C1826       C  0.86075525  0.35605823  0.96119887    -0.07600
C1827       C  0.87562617  0.33115008  0.98089607     0.13300
C1828       C  0.87428466  0.33380764  0.01546959    -0.21100
C1829       C  0.85790122  0.36023316  0.03125206    -0.07600
C1830       C  0.84380203  0.38566847  0.01139924     0.13300
C1831       C  0.82604644  0.41508757  0.02604216    -0.24400
H1832       H  0.83431539  0.40229151  0.96149965     0.14500
H1833       H  0.88540094  0.31431990  0.03026095     0.14600
C1834       C  0.89136596  0.30068662  0.96598973    -0.24400
H1835       H  0.81691053  0.43232728  0.00657269     0.04800
H1836       H  0.84311320  0.42928232  0.04223725     0.08000
H1837       H  0.80426566  0.40662507  0.04049048     0.08000
H1838       H  0.91319467  0.30781745  0.95096725     0.08000
H1839       H  0.87316796  0.28746266  0.95020658     0.08000
H1840       H  0.90002486  0.28304285  0.98530987     0.04800
C1841       C  0.75000731  0.38206811  0.78024514    -0.21000
C1842       C  0.78271807  0.37806555  0.76898845    -0.07600
C1843       C  0.78847847  0.37485852  0.73445073     0.13300
C1844       C  0.76164490  0.37639429  0.71254281    -0.21100
C1845       C  0.72897747  0.37947371  0.72387970    -0.07600
C1846       C  0.72307963  0.38225854  0.75832152     0.13300
C1847       C  0.68872593  0.38603916  0.77230408    -0.24400
H1848       H  0.74526239  0.38445219  0.80657891     0.14500
H1849       H  0.76623439  0.37440300  0.68618244     0.14600
C1850       C  0.82252367  0.36978364  0.72005750    -0.24400
H1851       H  0.68907795  0.38977852  0.79959499     0.04800
H1852       H  0.67405846  0.36333606  0.76739687     0.08000
H1853       H  0.67639814  0.40785636  0.76089692     0.08000
H1854       H  0.83285468  0.34583969  0.72882401     0.08000
H1855       H  0.83896973  0.39051879  0.72743305     0.08000
H1856       H  0.82211333  0.36888263  0.69251668     0.04800
C1857       C  0.78881537  0.24601802  0.87484587    -0.21000
C1858       C  0.77843530  0.27914458  0.87109688    -0.07600
C1859       C  0.74421784  0.28569733  0.86684088     0.13300
C1860       C  0.72180396  0.25923671  0.86673760    -0.21100
C1861       C  0.73224115  0.22619813  0.86994357    -0.07600
C1862       C  0.76634371  0.21949771  0.87397601     0.13300
C1863       C  0.77939950  0.18468806  0.87784156    -0.24400
H1864       H  0.81488605  0.24064195  0.87782193     0.14500
H1865       H  0.69574465  0.26444611  0.86327561     0.14600
C1866       C  0.73062338  0.32024650  0.86223947    -0.24400
H1867       H  0.80644528  0.18437641  0.88252784     0.04800
H1868       H  0.77493404  0.17038349  0.85479072     0.08000
H1869       H  0.76708036  0.17231051  0.89913060     0.08000
H1870       H  0.74011466  0.33106722  0.83878562     0.08000
H1871       H  0.73768631  0.33603592  0.88362270     0.08000
H1872       H  0.70322463  0.32041377  0.86058934     0.04800
C1873       C  0.84827080  0.12350198  0.47930016    -0.21000
C1874       C  0.86176127  0.15067815  0.46208911    -0.07600
C1875       C  0.87871659  0.17550005  0.48054961     0.13300
C1876       C  0.87904312  0.17373182  0.51525349    -0.21100
C1877       C  0.86274694  0.14831319  0.53231055    -0.07600
C1878       C  0.84854279  0.12196370  0.51411193     0.13300
C1879       C  0.83397508  0.09196140  0.53104859    -0.24400
H1880       H  0.83633234  0.10380333  0.46555859     0.14500
H1881       H  0.89061950  0.19348728  0.52926060     0.14600
C1882       C  0.89602689  0.20456333  0.46457360    -0.24400
H1883       H  0.82681097  0.07257191  0.51289716     0.04800
H1884       H  0.81138035  0.09885832  0.54497491     0.08000
H1885       H  0.85242369  0.08096813  0.54825208     0.08000
H1886       H  0.87780189  0.22091116  0.45206493     0.08000
H1887       H  0.91457161  0.19551982  0.44652754     0.08000
H1888       H  0.90934495  0.22002665  0.48300996     0.04800
C1889       C  0.98640929  0.12826130  0.66588696    -0.21000
C1890       C  0.96973534  0.14921875  0.64369536    -0.07600
C1891       C  0.98838562  0.16858962  0.62102632     0.13300
C1892       C  0.02297707  0.16764432  0.62247568    -0.21100
C1893       C  0.03966556  0.14830092  0.64610697    -0.07600
C1894       C  0.02097836  0.12759583  0.66759249     0.13300
C1895       C  0.03684986  0.10435850  0.69223118    -0.24400
H1896       H  0.97228213  0.11306075  0.68295780     0.14500
H1897       H  0.03706487  0.18315638  0.60566436     0.14600
C1898       C  0.97240791  0.19031506  0.59505005    -0.24400
H1899       H  0.01837550  0.08839519  0.70490234     0.04800
H1900       H  0.04988188  0.11857401  0.71179160     0.08000
H1901       H  0.05436552  0.08786692  0.67905702     0.08000
H1902       H  0.95919092  0.21122771  0.60698270     0.08000
H1903       H  0.95495115  0.17544938  0.57990059     0.08000
H1904       H  0.99092250  0.20128873  0.57791535     0.04800
C1905       C  0.78922266  0.25968944  0.62101560    -0.21000
C1906       C  0.77802201  0.22673833  0.61994150    -0.07600
C1907       C  0.74357653  0.22072345  0.61824254     0.13300
C1908       C  0.72163096  0.24771483  0.61753528    -0.21100
C1909       C  0.73279124  0.28066446  0.61972609    -0.07600
C1910       C  0.76728783  0.28661443  0.62129411     0.13300
C1911       C  0.78160179  0.32106901  0.62294995    -0.24400
H1912       H  0.81551456  0.26452111  0.62244439     0.14500
H1913       H  0.69534368  0.24289239  0.61612762     0.14600
C1914       C  0.72948637  0.18615231  0.61691422    -0.24400
H1915       H  0.80903508  0.32085196  0.62204312     0.04800
H1916       H  0.77443868  0.33293984  0.64661822     0.08000
H1917       H  0.77265255  0.33607357  0.60164180     0.08000
H1918       H  0.73504167  0.17276252  0.64033696     0.08000
H1919       H  0.74010226  0.17252675  0.59551002     0.08000
H1920       H  0.70219667  0.18637483  0.61397806     0.04800
C1921       C  0.74797384  0.12403366  0.71104107    -0.21000
C1922       C  0.78067901  0.12617916  0.72281118    -0.07600
C1923       C  0.78616993  0.12751918  0.75750018     0.13300
C1924       C  0.75901125  0.12727243  0.77905620    -0.21100
C1925       C  0.72634522  0.12608070  0.76727145    -0.07600
C1926       C  0.72078808  0.12406087  0.73266852     0.13300
C1927       C  0.68655213  0.12122907  0.71815668    -0.24400
H1928       H  0.74348488  0.12290707  0.68456467     0.14500
H1929       H  0.76343229  0.12881220  0.80552525     0.14600
C1930       C  0.82034537  0.12898732  0.77240087    -0.24400
H1931       H  0.68719720  0.11781198  0.69082788     0.04800
H1932       H  0.67226229  0.14412812  0.72310239     0.08000
H1933       H  0.67362481  0.09954230  0.72910976     0.08000
H1934       H  0.83261497  0.15256525  0.76535969     0.08000
H1935       H  0.83522890  0.10756250  0.76372830     0.08000
H1936       H  0.81968975  0.12804745  0.79993624     0.04800
C1937       C  0.88461024  0.21899341  0.75341892    -0.21000
C1938       C  0.88342126  0.23010274  0.72036754    -0.07600
C1939       C  0.88494673  0.26454869  0.71376162     0.13300
C1940       C  0.88588275  0.28674068  0.74038963    -0.21100
C1941       C  0.88503199  0.27565904  0.77344607    -0.07600
C1942       C  0.88532741  0.24118300  0.78004185     0.13300
C1943       C  0.88671823  0.22728162  0.81481115    -0.24400
H1944       H  0.88405102  0.19262982  0.75862020     0.14500
H1945       H  0.88627832  0.31310897  0.73521772     0.14600
C1946       C  0.88591726  0.27839670  0.67897582    -0.24400
H1947       H  0.88938272  0.19987690  0.81484141     0.04800
H1948       H  0.86356024  0.23312119  0.82833023     0.08000
H1949       H  0.90827412  0.23776460  0.82822258     0.08000
H1950       H  0.86229120  0.27319115  0.66604056     0.08000
H1951       H  0.90683949  0.26727735  0.66507015     0.08000
H1952       H  0.88933793  0.30571460  0.67884820     0.04800
C1953       C  0.52295067  0.63613619  0.67301495    -0.21000
C1954       C  0.53952905  0.65012388  0.64560616    -0.07600
C1955       C  0.52054765  0.66051484  0.61779887     0.13300
C1956       C  0.48597039  0.65791490  0.61897770    -0.21100
C1957       C  0.46962856  0.64508835  0.64685941    -0.07600
C1958       C  0.48840463  0.63359950  0.67408182     0.13300
C1959       C  0.47226856  0.62028368  0.70509416    -0.24400
H1960       H  0.53700266  0.62784457  0.69435103     0.14500
H1961       H  0.47140725  0.66664693  0.59813473     0.14600
C1962       C  0.53598342  0.67477474  0.58684857    -0.24400
H1963       H  0.49072808  0.61379909  0.72443936     0.04800
H1964       H  0.45814982  0.59745938  0.69922046     0.08000
H1965       H  0.45539535  0.63922265  0.71565978     0.08000
H1966       H  0.55364083  0.65669093  0.57605502     0.08000
H1967       H  0.54885193  0.69831906  0.59277429     0.08000
H1968       H  0.51723110  0.68046167  0.56753175     0.04800
C1969       C  0.66109694  0.52363704  0.61597806    -0.21000
C1970       C  0.64710965  0.53981964  0.64338450    -0.07600
C1971       C  0.63313790  0.52065635  0.66925186     0.13300
C1972       C  0.63487811  0.48605023  0.66761353    -0.21100
C1973       C  0.65054111  0.46965021  0.64114744    -0.07600
C1974       C  0.66291246  0.48888774  0.61432568     0.13300
C1975       C  0.67854307  0.47352328  0.58406708    -0.24400
H1976       H  0.67140340  0.53838525  0.59599836     0.14500
H1977       H  0.62476767  0.47176181  0.68799538     0.14600
C1978       C  0.61792343  0.53618905  0.69968362    -0.24400
H1979       H  0.68565893  0.49248411  0.56537681     0.04800
H1980       H  0.66078986  0.45636088  0.57201644     0.08000
H1981       H  0.70136466  0.45999703  0.59117578     0.08000
H1982       H  0.59589922  0.55098850  0.69257869     0.08000
H1983       H  0.63631629  0.55226658  0.71225329     0.08000
H1984       H  0.60964967  0.51727799  0.71793295     0.04800
C1985       C  0.63154957  0.67887430  0.47931444    -0.21000
C1986       C  0.64669784  0.65267703  0.46240172    -0.07600
C1987       C  0.65956218  0.62564861  0.48067538     0.13300
C1988       C  0.65896846  0.62670763  0.51545547    -0.21100
C1989       C  0.64611335  0.65415755  0.53264825    -0.07600
C1990       C  0.63115699  0.68022298  0.51407156     0.13300
C1991       C  0.61521469  0.71003486  0.53004341    -0.24400
H1992       H  0.62127184  0.69931325  0.46516503     0.14500
H1993       H  0.66963929  0.60624819  0.52923791     0.14600
C1994       C  0.67356111  0.59538508  0.46380988    -0.24400
H1995       H  0.60378668  0.72684227  0.51143683     0.04800
H1996       H  0.63400340  0.72472983  0.54365206     0.08000
H1997       H  0.59532646  0.70190165  0.54716300     0.08000
H1998       H  0.69654409  0.60179475  0.45027549     0.08000
H1999       H  0.65510846  0.58509434  0.44623219     0.08000
H2000       H  0.67991464  0.57561843  0.48193862     0.04800
C2001       C  0.84935410  0.52183730  0.87389589    -0.21000
C2002       C  0.86396204  0.53769305  0.84658139    -0.07600
C2003       C  0.87840690  0.51839985  0.82124429     0.13300
C2004       C  0.87686768  0.48381410  0.82343451    -0.21100
C2005       C  0.86090274  0.46767724  0.84999496    -0.07600
C2006       C  0.84763949  0.48715492  0.87609513     0.13300
C2007       C  0.83100648  0.47211859  0.90604009    -0.24400
H2008       H  0.83852767  0.53681079  0.89338592     0.14500
H2009       H  0.88749264  0.46933066  0.80350249     0.14600
C2010       C  0.89389456  0.53386217  0.79087725    -0.24400
H2011       H  0.82276662  0.49132037  0.92393867     0.04800
H2012       H  0.84852584  0.45553725  0.91927506     0.08000
H2013       H  0.80876388  0.45802152  0.89830080     0.08000
H2014       H  0.91576252  0.54876563  0.79812982     0.08000
H2015       H  0.87559676  0.54990250  0.77803524     0.08000
H2016       H  0.90241429  0.51488203  0.77287906     0.04800
C2017       C  0.98840953  0.67794010  0.86886465    -0.21000
C2018       C  0.97222823  0.65078820  0.85458915    -0.07600
C2019       C  0.99121024  0.62402467  0.84240171     0.13300
C2020       C  0.02584400  0.62614443  0.84288808    -0.21100
C2021       C  0.04226565  0.65439042  0.85501890    -0.07600
C2022       C  0.02301502  0.68033006  0.86917250     0.13300
C2023       C  0.03810568  0.71108641  0.88413127    -0.24400
H2024       H  0.97377363  0.69826549  0.87851596     0.14500
H2025       H  0.04012024  0.60578496  0.83282973     0.14600
C2026       C  0.97524123  0.59291354  0.82928595    -0.24400
H2027       H  0.01910050  0.72785687  0.89476216     0.04800
H2028       H  0.05152574  0.72536293  0.86480885     0.08000
H2029       H  0.05515003  0.70414339  0.90455673     0.08000
H2030       H  0.96152149  0.59831734  0.80608373     0.08000
H2031       H  0.95806704  0.58260869  0.84815063     0.08000
H2032       H  0.99383424  0.57353350  0.82342457     0.04800
C2033       C  0.88324192  0.65986796  0.97654861    -0.21000
C2034       C  0.85631562  0.64543373  0.96012630    -0.07600
C2035       C  0.82983774  0.63260934  0.97904366     0.13300
C2036       C  0.83039269  0.63596386  0.01370041    -0.21100
C2037       C  0.85659918  0.65193261  0.03024767    -0.07600
C2038       C  0.88395355  0.66317787  0.01119613     0.13300
C2039       C  0.91399091  0.67900317  0.02660438    -0.24400
H2040       H  0.90366406  0.66938043  0.96196391     0.14500
H2041       H  0.80958084  0.62671790  0.02784270     0.14600
C2042       C  0.80008657  0.61690202  0.96294294    -0.24400
H2043       H  0.93306153  0.68529475  0.00780781     0.04800
H2044       H  0.92543893  0.66153966  0.04456164     0.08000
H2045       H  0.90696891  0.70241835  0.03918295     0.08000
H2046       H  0.80767953  0.59434172  0.94918819     0.08000
H2047       H  0.78827831  0.63478860  0.94563766     0.08000
H2048       H  0.78125165  0.60933627  0.98150450     0.04800
C2049       C  0.76198572  0.64545892  0.71442475    -0.21000
C2050       C  0.73401167  0.62507555  0.71815995    -0.07600
C2051       C  0.73166643  0.60448581  0.74669954     0.13300
C2052       C  0.75653392  0.60591277  0.77101436    -0.21100
C2053       C  0.78395577  0.62674034  0.76739216    -0.07600
C2054       C  0.78693021  0.64653189  0.73861091     0.13300
C2055       C  0.81566894  0.66982086  0.73390373    -0.24400
H2056       H  0.76401094  0.66137296  0.69282653     0.14500
H2057       H  0.75461307  0.59064043  0.79309348     0.14600
C2058       C  0.70355294  0.58045646  0.75168223    -0.24400
H2059       H  0.81350295  0.68433152  0.71055160     0.04800
H2060       H  0.83904314  0.65549894  0.73273235     0.08000
H2061       H  0.81673966  0.68759946  0.75486979     0.08000
H2062       H  0.70154217  0.56379348  0.72987435     0.08000
H2063       H  0.68003333  0.59412020  0.75528636     0.08000
H2064       H  0.70732008  0.56469124  0.77398520     0.04800
C2065       C  0.52875236  0.88193101  0.83595479    -0.21000
C2066       C  0.54460340  0.85577044  0.85261448    -0.07600
C2067       C  0.52506572  0.83122792  0.86825239     0.13300
C2068       C  0.49048622  0.83326237  0.86623704    -0.21100
C2069       C  0.47443789  0.85879833  0.84855421    -0.07600
C2070       C  0.49413743  0.88385459  0.83364031     0.13300
C2071       C  0.47936552  0.91253901  0.81479390    -0.24400
H2072       H  0.54368680  0.90084791  0.82408067     0.14500
H2073       H  0.47590879  0.81401913  0.87799207     0.14600
C2074       C  0.54023653  0.80183658  0.88571624    -0.24400
H2075       H  0.49859596  0.92960077  0.80503406     0.04800
H2076       H  0.46324622  0.92709611  0.83160103     0.08000
H2077       H  0.46498898  0.90332420  0.79324768     0.08000
H2078       H  0.55476719  0.81034815  0.90740362     0.08000
H2079       H  0.55645792  0.78802692  0.86834084     0.08000
H2080       H  0.52119371  0.78432956  0.89503986     0.04800
C2081       C  0.63087671  0.98519410  0.82861212    -0.21000
C2082       C  0.64985592  0.96933538  0.85303010    -0.07600
C2083       C  0.66546615  0.98863779  0.87778432     0.13300
C2084       C  0.66336237  0.02326553  0.87604285    -0.21100
C2085       C  0.64676529  0.03930267  0.84989173    -0.07600
C2086       C  0.62934948  0.01977464  0.82634352     0.13300
C2087       C  0.60966994  0.03454345  0.79812852    -0.24400
H2088       H  0.61852151  0.97041392  0.80990787     0.14500
H2089       H  0.67614711  0.03787454  0.89457745     0.14600
C2090       C  0.68441837  0.97323135  0.90614060    -0.24400
H2091       H  0.59634308  0.01531585  0.78367722     0.04800
H2092       H  0.62634118  0.04759319  0.78058458     0.08000
H2093       H  0.59090007  0.05191929  0.80799920     0.08000
H2094       H  0.70704704  0.96085445  0.89680090     0.08000
H2095       H  0.66856302  0.95499936  0.91930004     0.08000
H2096       H  0.69244125  0.99208143  0.92450364     0.04800
C2097       C  0.66685214  0.88489207  0.98130560    -0.21000
C2098       C  0.65280793  0.85818097  0.96392569    -0.07600
C2099       C  0.63561991  0.83329851  0.98217653     0.13300
C2100       C  0.63435249  0.83527853  0.01679603    -0.21100
C2101       C  0.65011561  0.86078860  0.03409233    -0.07600
C2102       C  0.66589990  0.88647322  0.01609969     0.13300
C2103       C  0.68140171  0.91586080  0.03317677    -0.24400
H2104       H  0.67949504  0.90429856  0.96769898     0.14500
H2105       H  0.62209722  0.81575860  0.03063541     0.14600
C2106       C  0.61875041  0.80406769  0.96607007    -0.24400
H2107       H  0.69011960  0.93472220  0.01508018     0.04800
H2108       H  0.70316992  0.90791139  0.04789451     0.08000
H2109       H  0.66300368  0.92790960  0.04966170     0.08000
H2110       H  0.63726500  0.78800081  0.95368109     0.08000
H2111       H  0.60011994  0.81294998  0.94792520     0.08000
H2112       H  0.60555486  0.78831544  0.98440572     0.04800
C2113       C  0.62473893  0.75974929  0.71676958    -0.21000
C2114       C  0.63268250  0.72730831  0.72702860    -0.07600
C2115       C  0.64194551  0.72173512  0.76055274     0.13300
C2116       C  0.64244215  0.74853992  0.78254804    -0.21100
C2117       C  0.63477625  0.78079912  0.77204431    -0.07600
C2118       C  0.62597051  0.78656467  0.73868101     0.13300
C2119       C  0.61713249  0.82065553  0.72605811    -0.24400
H2120       H  0.61795034  0.76444272  0.69118194     0.14500
H2121       H  0.64951956  0.74437738  0.80817551     0.14600
C2122       C  0.65153575  0.68802117  0.77374150    -0.24400
H2123       H  0.60900319  0.82011281  0.69974566     0.04800
H2124       H  0.63897862  0.83720660  0.72748915     0.08000
H2125       H  0.59662066  0.83109989  0.74106184     0.08000
H2126       H  0.67399294  0.67892428  0.76080750     0.08000
H2127       H  0.63084020  0.67031078  0.77026181     0.08000
H2128       H  0.65734112  0.68868523  0.80067029     0.04800
C2129       C  0.72509676  0.74616362  0.87768728    -0.21000
C2130       C  0.73457389  0.77953933  0.87545415    -0.07600
C2131       C  0.76860251  0.78746085  0.87319462     0.13300
C2132       C  0.79187228  0.76174698  0.87228867    -0.21100
C2133       C  0.78236728  0.72825170  0.87362089    -0.07600
C2134       C  0.74831916  0.72042901  0.87689347     0.13300
C2135       C  0.73568483  0.68527948  0.87879124    -0.24400
H2136       H  0.69909674  0.74007348  0.87974631     0.14500
H2137       H  0.81781449  0.76799794  0.87008941     0.14600
C2138       C  0.78086639  0.82266742  0.87043895    -0.24400
H2139       H  0.70831743  0.68427122  0.88061265     0.04800
H2140       H  0.74575691  0.67278481  0.90117507     0.08000
H2141       H  0.74287813  0.67149879  0.85609450     0.08000
H2142       H  0.77425715  0.83674654  0.89311114     0.08000
H2143       H  0.76995014  0.83471032  0.84823129     0.08000
H2144       H  0.80815849  0.82384442  0.86778263     0.04800
C2145       C  0.84190285  0.87984397  0.51485086    -0.21000
C2146       C  0.86227080  0.85726394  0.53172714    -0.07600
C2147       C  0.88446874  0.83740315  0.51302538     0.13300
C2148       C  0.88351792  0.83876879  0.47820830    -0.21100
C2149       C  0.86114174  0.85936698  0.46133609    -0.07600
C2150       C  0.84100644  0.88128566  0.48010206     0.13300
C2151       C  0.81854644  0.90657782  0.46412933    -0.24400
H2152       H  0.82553497  0.89578860  0.52891434     0.14500
H2153       H  0.89958402  0.82257588  0.46408343     0.14600
C2154       C  0.90941179  0.81471002  0.52917199    -0.24400
H2155       H  0.80726714  0.92343213  0.48271668     0.04800
H2156       H  0.79791706  0.89412582  0.45101173     0.08000
H2157       H  0.83296337  0.92208912  0.44656996     0.08000
H2158       H  0.89669473  0.79403306  0.54208330     0.08000
H2159       H  0.92475076  0.82891562  0.54702500     0.08000
H2160       H  0.92635910  0.80343917  0.51068280     0.04800
C2161       C  0.98938087  0.83990920  0.61632664    -0.21000
C2162       C  0.97225761  0.85870739  0.64018018    -0.07600
C2163       C  0.99076947  0.87957483  0.66163261     0.13300
C2164       C  0.02534728  0.87823371  0.66096338    -0.21100
C2165       C  0.04242120  0.85717486  0.63927243    -0.07600
C2166       C  0.02415022  0.83910647  0.61533985     0.13300
C2167       C  0.04083949  0.81938939  0.58835445    -0.24400
H2168       H  0.97555745  0.82489081  0.59892162     0.14500
H2169       H  0.03914715  0.89305009  0.67856893     0.14600
C2170       C  0.97481379  0.90349860  0.68554888    -0.24400
H2171       H  0.02270703  0.80936250  0.57028593     0.04800
H2172       H  0.05428404  0.79797778  0.59915202     0.08000
H2173       H  0.05829920  0.83551741  0.57450846     0.08000
H2174       H  0.96178239  0.88977925  0.70551149     0.08000
H2175       H  0.95731158  0.91989364  0.67204656     0.08000
H2176       H  0.99329852  0.91968949  0.69785430     0.04800
C2177       C  0.88593663  0.98542658  0.65487886    -0.21000
C2178       C  0.85919301  0.96820688  0.64070166    -0.07600
C2179       C  0.83374414  0.98675852  0.62481435     0.13300
C2180       C  0.83510720  0.02142942  0.62513736    -0.21100
C2181       C  0.86060438  0.03842963  0.64121134    -0.07600
C2182       C  0.88692922  0.02023374  0.65548111     0.13300
C2183       C  0.91636052  0.03717794  0.67094117    -0.24400
H2184       H  0.90582772  0.97164683  0.66647689     0.14500
H2185       H  0.81513869  0.03547126  0.61394871     0.14600
C2186       C  0.80450562  0.97087345  0.60783222    -0.24400
H2187       H  0.93567736  0.01909874  0.67846539     0.04800
H2188       H  0.90879203  0.05084335  0.69354394     0.08000
H2189       H  0.92758173  0.05463624  0.65283592     0.08000
H2190       H  0.78916185  0.95734121  0.62622071     0.08000
H2191       H  0.81319429  0.95376562  0.58812300     0.08000
H2192       H  0.78818497  0.98949009  0.59579309     0.04800
C2193       C  0.75040361  0.78669556  0.61757485    -0.21000
C2194       C  0.78290587  0.77521200  0.62275368    -0.07600
C2195       C  0.78799849  0.74083462  0.62825615     0.13300
C2196       C  0.76079468  0.71926685  0.62765432    -0.21100
C2197       C  0.72844000  0.73091002  0.62282729    -0.07600
C2198       C  0.72315519  0.76521450  0.61804667     0.13300
C2199       C  0.68906855  0.77946221  0.61286770    -0.24400
H2200       H  0.74603760  0.81291972  0.61373508     0.14500
H2201       H  0.76476932  0.69301139  0.63184278     0.14600
C2202       C  0.82171695  0.72630068  0.63488550    -0.24400
H2203       H  0.68988034  0.80648502  0.60761547     0.04800
H2204       H  0.67394162  0.77595788  0.63556717     0.08000
H2205       H  0.67693916  0.76711160  0.59149254     0.08000
H2206       H  0.83192076  0.73653560  0.65829555     0.08000
H2207       H  0.83854751  0.73193535  0.61387360     0.08000
H2208       H  0.82080984  0.69892674  0.63775862     0.04800
C2209       C  0.90193549  0.75174895  0.71856142    -0.21000
C2210       C  0.88389653  0.78085338  0.72517123    -0.07600
C2211       C  0.86615568  0.78339798  0.75548176     0.13300
C2212       C  0.86760542  0.75717845  0.77824181    -0.21100
C2213       C  0.88530448  0.72823014  0.77125519    -0.07600
C2214       C  0.90260553  0.72529709  0.74110375     0.13300
C2215       C  0.92236102  0.69468681  0.73296818    -0.24400
H2216       H  0.91546346  0.74949276  0.69548695     0.14500
H2217       H  0.85400558  0.75883242  0.80136344     0.14600
C2218       C  0.84460596  0.81278562  0.76387452    -0.24400
H2219       H  0.93566174  0.69726442  0.70900406     0.04800
H2220       H  0.90572550  0.67293207  0.73095564     0.08000
H2221       H  0.94094641  0.69009824  0.75272549     0.08000
H2222       H  0.82548514  0.81622924  0.74439918     0.08000
H2223       H  0.85990514  0.83549325  0.76610007     0.08000
H2224       H  0.83154077  0.80940302  0.78788310     0.04800
C2225       C  0.72972241  0.86027011  0.74807387    -0.21000
C2226       C  0.73541179  0.88151817  0.77491694    -0.07600
C2227       C  0.76422627  0.90118458  0.77541971     0.13300
C2228       C  0.78659020  0.89912974  0.74883348    -0.21100
C2229       C  0.78089076  0.87804609  0.72157514    -0.07600
C2230       C  0.75212238  0.85788739  0.72161114     0.13300
C2231       C  0.74509404  0.83292304  0.69467788    -0.24400
H2232       H  0.70772113  0.84490836  0.74815642     0.14500
H2233       H  0.80851942  0.91454691  0.74931449     0.14600
C2234       C  0.77168187  0.92525771  0.80296983    -0.24400
H2235       H  0.72259892  0.81808014  0.70005403     0.04800
H2236       H  0.76614386  0.81539962  0.69239360     0.08000
H2237       H  0.74086231  0.84580196  0.67070868     0.08000
H2238       H  0.77431143  0.95059142  0.79248248     0.08000
H2239       H  0.75207690  0.92620387  0.82212459     0.08000
H2240       H  0.79522068  0.91814841  0.81521929     0.04800
loop_ 
_geom_bond_atom_site_label_1 
_geom_bond_atom_site_label_2 
_geom_bond_distance 
_geom_bond_site_symmetry_2 
_ccdc_geom_bond_type 
O1           C16   1.263       .  A
O1           Al9   1.907       .  S
C2           O12   1.260       .  A
C2            O3   1.264       .  A
C2         C2229   1.491       .  S
O3           Al5   1.922       .  S
O4            C6   1.256       .  A
O4           Al5   1.879       .  S
Al5          O13   1.903       .  S
Al5          O15   1.904       .  S
Al5          O14   1.780       .  S
C6           O19   1.262       .  A
C6         C2210   1.483       .  S
O7           C17   1.258       .  A
O7           Al9   1.899       .  S
O8           C21   1.264       .  A
O8          Al18   1.901       .  S
Al9          O22   1.911       .  S
Al9          O19   1.908       .  S
Al9          O14   1.783       .  S
O10          C17   1.261       .  A
O10         Al18   1.908       .  S
O11          C20   1.259       .  A
O11         Al18   1.900       .  S
O12         Al18   1.895       .  S
O13          C20   1.262       .  A
O14         Al18   1.777       .  S
O15          C16   1.261       .  A
C16        C2162   1.494       .  S
C17        C2194   1.492       .  S
C20        C2178   1.492       .  S
C21          O22   1.262       .  A
C21        C2146   1.490       .  S
O23          C38   1.263       .  A
O23         Al31   1.908       .  S
C24          O34   1.257       .  A
C24          O25   1.259       .  A
C24        C2117   1.471       .  S
O25         Al27   1.898       .  S
O26          C28   1.260       .  A
O26         Al27   1.884       .  S
Al27         O35   1.900       .  S
Al27         O37   1.891       .  S
Al27         O36   1.779       .  S
C28          O41   1.261       .  A
C28        C2130   1.482       .  S
O29          C39   1.259       .  A
O29         Al31   1.897       .  S
O30          C43   1.260       .  A
O30         Al40   1.885       .  S
Al31         O44   1.904       .  S
Al31         O41   1.914       .  S
Al31         O36   1.787       .  S
O32          C39   1.261       .  A
O32         Al40   1.911       .  S
O33          C42   1.264       .  A
O33         Al40   1.915       .  S
O34         Al40   1.885       .  S
O35          C42   1.262       .  A
O36         Al40   1.781       .  S
O37          C38   1.257       .  A
C38        C2098   1.490       .  S
C39        C2226   1.474       .  S
C42        C2066   1.487       .  S
C43          O44   1.261       .  A
C43        C2082   1.479       .  S
O45          C60   1.261       .  A
O45         Al53   1.896       .  S
C46          O56   1.260       .  A
C46          O47   1.262       .  A
C46        C2053   1.477       .  S
O47         Al49   1.918       .  S
O48          C50   1.255       .  A
O48         Al49   1.876       .  S
Al49         O57   1.887       .  S
Al49         O59   1.908       .  S
Al49         O58   1.788       .  S
C50          O63   1.259       .  A
C50        C2213   1.465       .  S
O51          C61   1.259       .  A
O51         Al53   1.886       .  S
O52          C65   1.261       .  A
O52         Al62   1.899       .  S
Al53         O66   1.904       .  S
Al53         O63   1.903       .  S
Al53         O58   1.787       .  S
O54          C61   1.259       .  A
O54         Al62   1.906       .  S
O55          C64   1.261       .  A
O55         Al62   1.903       .  S
O56         Al62   1.896       .  S
O57          C64   1.258       .  A
O58         Al62   1.789       .  S
O59          C60   1.261       .  A
C60        C2018   1.481       .  S
C61        C2133   1.486       .  S
C64        C2002   1.476       .  S
C65          O66   1.262       .  A
C65        C2034   1.481       .  S
O67          C82   1.263       .  A
O67         Al75   1.902       .  S
C68          O78   1.256       .  A
C68          O69   1.261       .  A
C68        C2114   1.484       .  S
O69         Al71   1.906       .  S
O70          C72   1.260       .  A
O70         Al71   1.891       .  S
Al71         O79   1.895       .  S
Al71         O81   1.902       .  S
Al71         O80   1.779       .  S
C72          O85   1.264       .  A
C72        C2197   1.482       .  S
O73          C83   1.260       .  A
O73         Al75   1.897       .  S
O74          C87   1.258       .  A
O74         Al84   1.885       .  S
Al75         O88   1.919       .  S
Al75         O85   1.917       .  S
Al75         O80   1.779       .  S
O76          C83   1.261       .  A
O76         Al84   1.916       .  S
O77          C86   1.266       .  A
O77         Al84   1.919       .  S
O78         Al84   1.882       .  S
O79          C86   1.261       .  A
O80         Al84   1.777       .  S
O81          C82   1.259       .  A
C82        C1989   1.492       .  S
C83        C2050   1.490       .  S
C86        C1954   1.494       .  S
C87          O88   1.265       .  A
C87        C1970   1.481       .  S
O89         C104   1.261       .  A
O89         Al97   1.892       .  S
C90         O100   1.260       .  A
C90          O91   1.263       .  A
C90        C1922   1.488       .  S
O91         Al93   1.912       .  S
O92          C94   1.259       .  A
O92         Al93   1.895       .  S
Al93        O101   1.893       .  S
Al93        O103   1.908       .  S
Al93        O102   1.779       .  S
C94         O107   1.263       .  A
C94        C1906   1.489       .  S
O95         C105   1.258       .  A
O95         Al97   1.886       .  S
O96         C109   1.263       .  A
O96        Al106   1.895       .  S
Al97        O110   1.904       .  S
Al97        O107   1.913       .  S
Al97        O102   1.778       .  S
O98         C105   1.262       .  A
O98        Al106   1.907       .  S
O99         C108   1.261       .  A
O99        Al106   1.908       .  S
O100       Al106   1.893       .  S
O101        C108   1.261       .  A
O102       Al106   1.779       .  S
O103        C104   1.261       .  A
C104       C1877   1.479       .  S
C105       C1938   1.480       .  S
C108       C2181   1.479       .  S
C109        O110   1.260       .  A
C109       C1890   1.483       .  S
O111        C126   1.257       .  A
O111       Al119   1.883       .  S
C112        O122   1.260       .  A
C112        O113   1.264       .  A
C112       C1842   1.488       .  S
O113       Al115   1.916       .  S
O114        C116   1.258       .  A
O114       Al115   1.884       .  S
Al115       O123   1.896       .  S
Al115       O125   1.911       .  S
Al115       O124   1.776       .  S
C116        O129   1.264       .  A
C116       C1858   1.491       .  S
O117        C127   1.256       .  A
O117       Al119   1.879       .  S
O118        C131   1.263       .  A
O118       Al128   1.891       .  S
Al119       O132   1.912       .  S
Al119       O129   1.920       .  S
Al119       O124   1.777       .  S
O120        C127   1.261       .  A
O120       Al128   1.908       .  S
O121        C130   1.263       .  A
O121       Al128   1.906       .  S
O122       Al128   1.891       .  S
O123        C130   1.260       .  A
O124       Al128   1.777       .  S
O125        C126   1.263       .  A
C126       C1826   1.477       .  S
C127       C1941   1.478       .  S
C130       C2005   1.489       .  S
C131        O132   1.263       .  A
C131       C1810   1.479       .  S
O133        C148   1.261       .  A
O133       Al141   1.894       .  S
C134        O144   1.259       .  A
C134        O135   1.263       .  A
C134       C1925   1.485       .  S
O135       Al137   1.911       .  S
O136        C138   1.259       .  A
O136       Al137   1.893       .  S
Al137       O145   1.894       .  S
Al137       O147   1.910       .  S
Al137       O146   1.781       .  S
C138        O151   1.263       .  A
C138       C1861   1.485       .  S
O139        C149   1.258       .  A
O139       Al141   1.890       .  S
O140        C153   1.261       .  A
O140       Al150   1.897       .  S
Al141       O154   1.905       .  S
Al141       O151   1.911       .  S
Al141       O146   1.780       .  S
O142        C149   1.259       .  A
O142       Al150   1.900       .  S
O143        C152   1.259       .  A
O143       Al150   1.900       .  S
O144       Al150   1.895       .  S
O145        C152   1.261       .  A
O146       Al150   1.782       .  S
O147        C148   1.261       .  A
C148       C1778   1.484       .  S
C149       C1794   1.464       .  S
C152       C2085   1.486       .  S
C153        O154   1.263       .  A
C153       C1762   1.491       .  S
O155        C170   1.263       .  A
O155       Al163   1.901       .  S
C156        O166   1.257       .  A
C156        O157   1.260       .  A
C156       C1845   1.482       .  S
O157       Al159   1.905       .  S
O158        C160   1.260       .  A
O158       Al159   1.891       .  S
Al159       O167   1.894       .  S
Al159       O169   1.897       .  S
Al159       O168   1.779       .  S
C160        O173   1.266       .  A
C160       C1909   1.491       .  S
O161        C171   1.258       .  A
O161       Al163   1.883       .  S
O162        C175   1.259       .  A
O162       Al172   1.894       .  S
Al163       O176   1.919       .  S
Al163       O173   1.927       .  S
Al163       O168   1.779       .  S
O164        C171   1.263       .  A
O164       Al172   1.911       .  S
O165        C174   1.266       .  A
O165       Al172   1.914       .  S
O166       Al172   1.894       .  S
O167        C174   1.260       .  A
O168       Al172   1.778       .  S
O169        C170   1.258       .  A
C170       C1746   1.488       .  S
C171       C1797   1.485       .  S
C174       C1973   1.492       .  S
C175        O176   1.264       .  A
C175       C1730   1.493       .  S
O177        C192   1.260       .  A
O177       Al185   1.894       .  S
C178        O188   1.257       .  A
C178        O179   1.261       .  A
C178       C1698   1.487       .  S
O179       Al181   1.905       .  S
O180        C182   1.260       .  A
O180       Al181   1.897       .  S
Al181       O189   1.893       .  S
Al181       O191   1.901       .  S
Al181       O190   1.773       .  S
C182        O195   1.262       .  A
C182       C1714   1.492       .  S
O183        C193   1.259       .  A
O183       Al185   1.892       .  S
O184        C197   1.262       .  A
O184       Al194   1.894       .  S
Al185       O198   1.898       .  S
Al185       O195   1.911       .  S
Al185       O190   1.777       .  S
O186        C193   1.264       .  A
O186       Al194   1.912       .  S
O187        C196   1.263       .  A
O187       Al194   1.919       .  S
O188       Al194   1.887       .  S
O189        C196   1.262       .  A
O190       Al194   1.776       .  S
O191        C192   1.263       .  A
C192       C1666   1.487       .  S
C193       C1682   1.489       .  S
C196       C2165   1.489       .  S
C197        O198   1.259       .  A
C197       C1650   1.486       .  S
O199        C214   1.263       .  A
O199       Al207   1.904       .  S
C200        O210   1.261       .  A
C200        O201   1.259       .  A
C200       C1618   1.480       .  S
O201       Al203   1.903       .  S
O202        C204   1.259       .  A
O202       Al203   1.896       .  S
Al203       O211   1.906       .  S
Al203       O213   1.889       .  S
Al203       O212   1.786       .  S
C204        O217   1.258       .  A
C204       C1717   1.475       .  S
O205        C215   1.259       .  A
O205       Al207   1.899       .  S
O206        C219   1.262       .  A
O206       Al216   1.905       .  S
Al207       O220   1.896       .  S
Al207       O217   1.898       .  S
Al207       O212   1.786       .  S
O208        C215   1.261       .  A
O208       Al216   1.909       .  S
O209        C218   1.262       .  A
O209       Al216   1.909       .  S
O210       Al216   1.896       .  S
O211        C218   1.261       .  A
O212       Al216   1.784       .  S
O213        C214   1.257       .  A
C214       C1586   1.490       .  S
C215       C1634   1.486       .  S
C218       C2069   1.498       .  S
C219        O220   1.261       .  A
C219       C1602   1.490       .  S
O221        C236   1.260       .  A
O221       Al229   1.895       .  S
C222        O232   1.259       .  A
C222        O223   1.262       .  A
C222       C1701   1.470       .  S
O223       Al225   1.905       .  S
O224        C226   1.262       .  A
O224       Al225   1.894       .  S
Al225       O233   1.904       .  S
Al225       O235   1.907       .  S
Al225       O234   1.780       .  S
C226        O239   1.261       .  A
C226       C1573   1.494       .  S
O227        C237   1.258       .  A
O227       Al229   1.893       .  S
O228        C241   1.259       .  A
O228       Al238   1.888       .  S
Al229       O242   1.912       .  S
Al229       O239   1.914       .  S
Al229       O234   1.777       .  S
O230        C237   1.262       .  A
O230       Al238   1.919       .  S
O231        C240   1.261       .  A
O231       Al238   1.909       .  S
O232       Al238   1.888       .  S
O233        C240   1.264       .  A
O234       Al238   1.782       .  S
O235        C236   1.261       .  A
C236       C1538   1.485       .  S
C237       C1637   1.495       .  S
C240       C2021   1.495       .  S
C241        O242   1.265       .  A
C241       C1554   1.487       .  S
O243        C258   1.261       .  A
O243       Al251   1.899       .  S
C244        O254   1.260       .  A
C244        O245   1.258       .  A
C244       C1621   1.489       .  S
O245       Al247   1.903       .  S
O246        C248   1.260       .  A
O246       Al247   1.894       .  S
Al247       O255   1.896       .  S
Al247       O257   1.903       .  S
Al247       O256   1.787       .  S
C248        O261   1.261       .  A
C248       C1570   1.483       .  S
O249        C259   1.257       .  A
O249       Al251   1.886       .  S
O250        C263   1.262       .  A
O250       Al260   1.903       .  S
Al251       O264   1.909       .  S
Al251       O261   1.915       .  S
Al251       O256   1.786       .  S
O252        C259   1.259       .  A
O252       Al260   1.905       .  S
O253        C262   1.261       .  A
O253       Al260   1.902       .  S
O254       Al260   1.891       .  S
O255        C262   1.260       .  A
O256       Al260   1.788       .  S
O257        C258   1.260       .  A
C258       C1506   1.482       .  S
C259       C1685   1.472       .  S
C262       C1957   1.478       .  S
C263        O264   1.261       .  A
C263       C1525   1.488       .  S
O265        C280   1.262       .  A
O265       Al273   1.900       .  S
C266        O276   1.260       .  A
C266        O267   1.256       .  A
C266       C1474   1.491       .  S
O267       Al269   1.903       .  S
O268        C270   1.262       .  A
O268       Al269   1.893       .  S
Al269       O277   1.888       .  S
Al269       O279   1.903       .  S
Al269       O278   1.782       .  S
C270        O283   1.260       .  A
C270       C1458   1.480       .  S
O271        C281   1.259       .  A
O271       Al273   1.891       .  S
O272        C285   1.260       .  A
O272       Al282   1.903       .  S
Al273       O286   1.892       .  S
Al273       O283   1.907       .  S
Al273       O278   1.779       .  S
O274        C281   1.262       .  A
O274       Al282   1.911       .  S
O275        C284   1.265       .  A
O275       Al282   1.910       .  S
O276       Al282   1.897       .  S
O277        C284   1.261       .  A
O278       Al282   1.780       .  S
O279        C280   1.259       .  A
C280       C1893   1.486       .  S
C281       C1490   1.478       .  S
C284       C1669   1.476       .  S
C285        O286   1.260       .  A
C285       C1442   1.492       .  S
O287        C302   1.260       .  A
O287       Al295   1.894       .  S
C288        O298   1.257       .  A
C288        O289   1.266       .  A
C288       C1426   1.489       .  S
O289       Al291   1.922       .  S
O290        C292   1.260       .  A
O290       Al291   1.887       .  S
Al291       O299   1.906       .  S
Al291       O301   1.922       .  S
Al291       O300   1.777       .  S
C292        O305   1.258       .  A
C292       C1410   1.485       .  S
O293        C303   1.258       .  A
O293       Al295   1.896       .  S
O294        C307   1.259       .  A
O294       Al304   1.886       .  S
Al295       O308   1.903       .  S
Al295       O305   1.901       .  S
Al295       O300   1.777       .  S
O296        C303   1.263       .  A
O296       Al304   1.916       .  S
O297        C306   1.260       .  A
O297       Al304   1.906       .  S
O298       Al304   1.879       .  S
O299        C306   1.264       .  A
O300       Al304   1.777       .  S
O301        C302   1.266       .  A
C302       C1733   1.495       .  S
C303       C1493   1.494       .  S
C306       C1509   1.495       .  S
C307        O308   1.264       .  A
C307       C1394   1.484       .  S
O309        C324   1.259       .  A
O309       Al317   1.893       .  S
C310        O320   1.261       .  A
C310        O311   1.261       .  A
C310       C1477   1.482       .  S
O311       Al313   1.911       .  S
O312        C314   1.259       .  A
O312       Al313   1.886       .  S
Al313       O321   1.893       .  S
Al313       O323   1.898       .  S
Al313       O322   1.781       .  S
C314        O327   1.259       .  A
C314       C1413   1.470       .  S
O315        C325   1.258       .  A
O315       Al317   1.885       .  S
O316        C329   1.261       .  A
O316       Al326   1.891       .  S
Al317       O330   1.898       .  S
Al317       O327   1.902       .  S
Al317       O322   1.782       .  S
O318        C325   1.259       .  A
O318       Al326   1.912       .  S
O319        C328   1.259       .  A
O319       Al326   1.902       .  S
O320       Al326   1.894       .  S
O321        C328   1.260       .  A
O322       Al326   1.784       .  S
O323        C324   1.260       .  A
C324       C1765   1.475       .  S
C325       C1378   1.487       .  S
C328       C1589   1.476       .  S
C329        O330   1.260       .  A
C329       C1362   1.477       .  S
O331        C346   1.264       .  A
O331       Al339   1.902       .  S
C332        O342   1.258       .  A
C332        O333   1.259       .  A
C332       C1429   1.472       .  S
O333       Al335   1.903       .  S
O334        C336   1.262       .  A
O334       Al335   1.896       .  S
Al335       O343   1.906       .  S
Al335       O345   1.898       .  S
Al335       O344   1.779       .  S
C336        O349   1.257       .  A
C336       C1461   1.482       .  S
O337        C347   1.262       .  A
O337       Al339   1.899       .  S
O338        C351   1.262       .  A
O338       Al348   1.896       .  S
Al339       O352   1.896       .  S
Al339       O349   1.899       .  S
Al339       O344   1.781       .  S
O340        C347   1.260       .  A
O340       Al348   1.907       .  S
O341        C350   1.263       .  A
O341       Al348   1.903       .  S
O342       Al348   1.893       .  S
O343        C350   1.263       .  A
O344       Al348   1.777       .  S
O345        C346   1.259       .  A
C346       C1813   1.489       .  S
C347       C1381   1.488       .  S
C350       C1541   1.494       .  S
C351        O352   1.258       .  A
C351       C1346   1.473       .  S
O353        C368   1.261       .  A
O353       Al361   1.905       .  S
C354        O364   1.258       .  A
C354        O355   1.258       .  A
C354       C1301   1.485       .  S
O355       Al357   1.907       .  S
O356        C358   1.262       .  A
O356       Al357   1.900       .  S
Al357       O365   1.909       .  S
Al357       O367   1.896       .  S
Al357       O366   1.785       .  S
C358        O371   1.260       .  A
C358       C1330   1.477       .  S
O359        C369   1.260       .  A
O359       Al361   1.900       .  S
O360        C373   1.257       .  A
O360       Al370   1.882       .  S
Al361       O374   1.902       .  S
Al361       O371   1.904       .  S
Al361       O366   1.786       .  S
O362        C369   1.260       .  A
O362       Al370   1.905       .  S
O363        C372   1.259       .  A
O363       Al370   1.899       .  S
O364       Al370   1.879       .  S
O365        C372   1.264       .  A
O366       Al370   1.780       .  S
O367        C368   1.260       .  A
C368       C1266   1.491       .  S
C369       C1314   1.482       .  S
C372       C2149   1.489       .  S
C373        O374   1.261       .  A
C373       C1282   1.473       .  S
O375        C390   1.264       .  A
O375       Al383   1.900       .  S
C376        O386   1.257       .  A
C376        O377   1.262       .  A
C376       C1250   1.481       .  S
O377       Al379   1.912       .  S
O378        C380   1.261       .  A
O378       Al379   1.887       .  S
Al379       O387   1.892       .  S
Al379       O389   1.908       .  S
Al379       O388   1.778       .  S
C380        O393   1.258       .  A
C380       C1333   1.488       .  S
O381        C391   1.260       .  A
O381       Al383   1.896       .  S
O382        C395   1.258       .  A
O382       Al392   1.895       .  S
Al383       O396   1.901       .  S
Al383       O393   1.908       .  S
Al383       O388   1.779       .  S
O384        C391   1.265       .  A
O384       Al392   1.921       .  S
O385        C394   1.265       .  A
O385       Al392   1.917       .  S
O386       Al392   1.886       .  S
O387        C394   1.260       .  A
O388       Al392   1.781       .  S
O389        C390   1.261       .  A
C390       C1218   1.492       .  S
C391       C1237   1.497       .  S
C394       C2037   1.495       .  S
C395        O396   1.262       .  A
C395       C1202   1.490       .  S
O397        C412   1.264       .  A
O397       Al405   1.902       .  S
C398        O408   1.259       .  A
C398        O399   1.264       .  A
C398       C1253   1.491       .  S
O399       Al401   1.915       .  S
O400        C402   1.260       .  A
O400       Al401   1.888       .  S
Al401       O409   1.894       .  S
Al401       O411   1.909       .  S
Al401       O410   1.777       .  S
C402        O415   1.259       .  A
C402       C1186   1.489       .  S
O403        C413   1.261       .  A
O403       Al405   1.905       .  S
O404        C417   1.262       .  A
O404       Al414   1.895       .  S
Al405       O418   1.910       .  S
Al405       O415   1.907       .  S
Al405       O410   1.777       .  S
O406        C413   1.262       .  A
O406       Al414   1.910       .  S
O407        C416   1.259       .  A
O407       Al414   1.903       .  S
O408       Al414   1.889       .  S
O409        C416   1.261       .  A
O410       Al414   1.778       .  S
O411        C412   1.261       .  A
C412       C1154   1.489       .  S
C413       C1317   1.496       .  S
C416       C2101   1.478       .  S
C417        O418   1.262       .  A
C417       C1170   1.487       .  S
O419        C434   1.260       .  A
O419       Al427   1.896       .  S
C420        O430   1.258       .  A
C420        O421   1.258       .  A
C420       C1298   1.473       .  S
O421       Al423   1.902       .  S
O422        C424   1.260       .  A
O422       Al423   1.888       .  S
Al423       O431   1.893       .  S
Al423       O433   1.896       .  S
Al423       O432   1.789       .  S
C424        O437   1.260       .  A
C424       C1189   1.475       .  S
O425        C435   1.258       .  A
O425       Al427   1.891       .  S
O426        C439   1.259       .  A
O426       Al436   1.892       .  S
Al427       O440   1.892       .  S
Al427       O437   1.904       .  S
Al427       O432   1.788       .  S
O428        C435   1.261       .  A
O428       Al436   1.912       .  S
O429        C438   1.261       .  A
O429       Al436   1.906       .  S
O430       Al436   1.888       .  S
O431        C438   1.261       .  A
O432       Al436   1.788       .  S
O433        C434   1.257       .  A
C434       C1122   1.479       .  S
C435       C1234   1.483       .  S
C438       C1986   1.478       .  S
C439        O440   1.259       .  A
C439       C1141   1.474       .  S
O441        C456   1.263       .  A
O441       Al449   1.900       .  S
C442        O452   1.262       .  A
C442        O443   1.262       .  A
C442       C1074   1.480       .  S
O443       Al445   1.911       .  S
O444        C446   1.258       .  A
O444       Al445   1.896       .  S
Al445       O453   1.908       .  S
Al445       O455   1.898       .  S
Al445       O454   1.785       .  S
C446        O459   1.259       .  A
C446       C1093   1.481       .  S
O447        C457   1.261       .  A
O447       Al449   1.900       .  S
O448        C461   1.263       .  A
O448       Al458   1.906       .  S
Al449       O462   1.904       .  S
Al449       O459   1.902       .  S
Al449       O454   1.784       .  S
O450        C457   1.257       .  A
O450       Al458   1.903       .  S
O451        C460   1.256       .  A
O451       Al458   1.894       .  S
O452       Al458   1.899       .  S
O453        C460   1.262       .  A
O454       Al458   1.785       .  S
O455        C456   1.259       .  A
C456       C1173   1.488       .  S
C457       C1106   1.486       .  S
C460       C1781   1.494       .  S
C461        O462   1.263       .  A
C461       C1058   1.494       .  S
O463        C478   1.262       .  A
O463       Al471   1.905       .  S
C464        O474   1.260       .  A
C464        O465   1.259       .  A
C464       C1026   1.479       .  S
O465       Al467   1.904       .  S
O466        C468   1.257       .  A
O466       Al467   1.885       .  S
Al467       O475   1.893       .  S
Al467       O477   1.888       .  S
Al467       O476   1.785       .  S
C468        O481   1.260       .  A
C468       C1042   1.479       .  S
O469        C479   1.261       .  A
O469       Al471   1.892       .  S
O470        C483   1.261       .  A
O470       Al480   1.899       .  S
Al471       O484   1.913       .  S
Al471       O481   1.914       .  S
Al471       O476   1.787       .  S
O472        C479   1.258       .  A
O472       Al480   1.901       .  S
O473        C482   1.258       .  A
O473       Al480   1.896       .  S
O474       Al480   1.902       .  S
O475        C482   1.259       .  A
O476       Al480   1.787       .  S
O477        C478   1.260       .  A
C478       C1138   1.490       .  S
C479       C1109   1.486       .  S
C482       C1749   1.476       .  S
C483        O484   1.262       .  A
C483       C1010   1.488       .  S
O485        C500   1.258       .  A
O485       Al493   1.890       .  S
C486        O496   1.263       .  A
C486        O487   1.259       .  A
C486       C1029   1.494       .  S
O487       Al489   1.908       .  S
O488        C490   1.260       .  A
O488       Al489   1.899       .  S
Al489       O497   1.909       .  S
Al489       O499   1.896       .  S
Al489       O498   1.783       .  S
C490        O503   1.263       .  A
C490       C1090   1.496       .  S
O491        C501   1.256       .  A
O491       Al493   1.886       .  S
O492        C505   1.263       .  A
O492       Al502   1.910       .  S
Al493       O506   1.911       .  S
Al493       O503   1.913       .  S
Al493       O498   1.781       .  S
O494        C501   1.260       .  A
O494       Al502   1.905       .  S
O495        C504   1.258       .  A
O495       Al502   1.898       .  S
O496       Al502   1.902       .  S
O497        C504   1.264       .  A
O498       Al502   1.779       .  S
O499        C500   1.261       .  A
C500       C1285   1.487       .  S
C501        C994   1.489       .  S
C504       C1874   1.493       .  S
C505        O506   1.264       .  A
C505        C978   1.499       .  S
O507        C522   1.259       .  A
O507       Al515   1.890       .  S
C508        O518   1.262       .  A
C508        O509   1.260       .  A
C508       C1077   1.492       .  S
O509       Al511   1.914       .  S
O510        C512   1.261       .  A
O510       Al511   1.890       .  S
Al511       O519   1.895       .  S
Al511       O521   1.910       .  S
Al511       O520   1.780       .  S
C512        O525   1.262       .  A
C512       C1045   1.492       .  S
O513        C523   1.258       .  A
O513       Al515   1.890       .  S
O514        C527   1.263       .  A
O514       Al524   1.900       .  S
Al515       O528   1.912       .  S
Al515       O525   1.916       .  S
Al515       O520   1.778       .  S
O516        C523   1.261       .  A
O516       Al524   1.906       .  S
O517        C526   1.263       .  A
O517       Al524   1.905       .  S
O518       Al524   1.894       .  S
O519        C526   1.260       .  A
O520       Al524   1.777       .  S
O521        C522   1.262       .  A
C522       C1205   1.481       .  S
C523        C997   1.475       .  S
C526       C1829   1.489       .  S
C527        O528   1.263       .  A
C527        C962   1.487       .  S
O529        C544   1.263       .  A
O529       Al537   1.903       .  S
C530        O540   1.259       .  A
C530        O531   1.258       .  A
C530        C946   1.475       .  S
O531       Al533   1.897       .  S
O532        C534   1.260       .  A
O532       Al533   1.888       .  S
Al533       O541   1.902       .  S
Al533       O543   1.895       .  S
Al533       O542   1.784       .  S
C534        O547   1.260       .  A
C534        C930   1.486       .  S
O535        C545   1.262       .  A
O535       Al537   1.900       .  S
O536        C549   1.260       .  A
O536       Al546   1.895       .  S
Al537       O550   1.902       .  S
Al537       O547   1.913       .  S
Al537       O542   1.789       .  S
O538        C545   1.262       .  A
O538       Al546   1.916       .  S
O539        C548   1.263       .  A
O539       Al546   1.913       .  S
O540       Al546   1.897       .  S
O541        C548   1.261       .  A
O542       Al546   1.783       .  S
O543        C544   1.258       .  A
C544        C898   1.486       .  S
C545        C914   1.491       .  S
C548        C981   1.484       .  S
C549        O550   1.260       .  A
C549       C1445   1.480       .  S
O551        C566   1.260       .  A
O551       Al559   1.891       .  S
C552        O562   1.259       .  A
C552        O553   1.262       .  A
C552        C949   1.492       .  S
O553       Al555   1.907       .  S
O554        C556   1.261       .  A
O554       Al555   1.900       .  S
Al555       O563   1.897       .  S
Al555       O565   1.913       .  S
Al555       O564   1.778       .  S
C556        O569   1.256       .  A
C556        C866   1.488       .  S
O557        C567   1.260       .  A
O557       Al559   1.891       .  S
O558        C571   1.263       .  A
O558       Al568   1.909       .  S
Al559       O572   1.885       .  S
Al559       O569   1.898       .  S
Al559       O564   1.776       .  S
O560        C567   1.265       .  A
O560       Al568   1.916       .  S
O561        C570   1.261       .  A
O561       Al568   1.910       .  S
O562       Al568   1.895       .  S
O563        C570   1.263       .  A
O564       Al568   1.779       .  S
O565        C566   1.265       .  A
C566        C850   1.490       .  S
C567        C882   1.491       .  S
C570        C965   1.493       .  S
C571        O572   1.255       .  A
C571       C1349   1.489       .  S
O573        C588   1.261       .  A
O573       Al581   1.890       .  S
C574        O584   1.258       .  A
C574        O575   1.263       .  A
C574        C834   1.480       .  S
O575       Al577   1.906       .  S
O576        C578   1.262       .  A
O576       Al577   1.902       .  S
Al577       O585   1.897       .  S
Al577       O587   1.912       .  S
Al577       O586   1.778       .  S
C578        O591   1.259       .  A
C578        C933   1.488       .  S
O579        C589   1.259       .  A
O579       Al581   1.889       .  S
O580        C593   1.261       .  A
O580       Al590   1.892       .  S
Al581       O594   1.898       .  S
Al581       O591   1.906       .  S
Al581       O586   1.778       .  S
O582        C589   1.263       .  A
O582       Al590   1.916       .  S
O583        C592   1.263       .  A
O583       Al590   1.910       .  S
O584       Al590   1.889       .  S
O585        C592   1.261       .  A
O586       Al590   1.781       .  S
O587        C588   1.262       .  A
C588        C821   1.481       .  S
C589        C885   1.476       .  S
C592       C1061   1.484       .  S
C593        O594   1.259       .  A
C593       C1365   1.481       .  S
O595        C610   1.259       .  A
O595       Al603   1.900       .  S
C596        O606   1.258       .  A
C596        O597   1.263       .  A
C596        C837   1.487       .  S
O597       Al599   1.915       .  S
O598        C600   1.260       .  A
O598       Al599   1.890       .  S
Al599       O607   1.904       .  S
Al599       O609   1.898       .  S
Al599       O608   1.785       .  S
C600        O613   1.262       .  A
C600        C869   1.473       .  S
O601        C611   1.261       .  A
O601       Al603   1.894       .  S
O602        C615   1.258       .  A
O602       Al612   1.882       .  S
Al603       O616   1.900       .  S
Al603       O613   1.911       .  S
Al603       O608   1.782       .  S
O604        C611   1.260       .  A
O604       Al612   1.919       .  S
O605        C614   1.265       .  A
O605       Al612   1.914       .  S
O606       Al612   1.883       .  S
O607        C614   1.260       .  A
O608       Al612   1.778       .  S
O609        C610   1.261       .  A
C610        C802   1.491       .  S
C611        C917   1.497       .  S
C614       C1013   1.496       .  S
C615        O616   1.261       .  A
C615       C1397   1.468       .  S
O617        C632   1.259       .  A
O617       Al625   1.891       .  S
C618        O628   1.256       .  A
C618        O619   1.260       .  A
C618        C770   1.474       .  S
O619       Al621   1.905       .  S
O620        C622   1.260       .  A
O620       Al621   1.889       .  S
Al621       O629   1.896       .  S
Al621       O631   1.904       .  S
Al621       O630   1.783       .  S
C622        O635   1.261       .  A
C622        C754   1.485       .  S
O623        C633   1.259       .  A
O623       Al625   1.885       .  S
O624        C637   1.257       .  A
O624       Al634   1.890       .  S
Al625       O638   1.905       .  S
Al625       O635   1.916       .  S
Al625       O630   1.785       .  S
O626        C633   1.262       .  A
O626       Al634   1.914       .  S
O627        C636   1.260       .  A
O627       Al634   1.902       .  S
O628       Al634   1.883       .  S
O629        C636   1.261       .  A
O630       Al634   1.784       .  S
O631        C632   1.262       .  A
C632       C1557   1.481       .  S
C633        C789   1.477       .  S
C636       C1221   1.481       .  S
C637        O638   1.261       .  A
C637        C853   1.478       .  S
O639        C654   1.263       .  A
O639       Al647   1.905       .  S
C640        O650   1.259       .  A
C640        O641   1.264       .  A
C640        C725   1.492       .  S
O641       Al643   1.916       .  S
O642        C644   1.260       .  A
O642       Al643   1.895       .  S
Al643       O651   1.901       .  S
Al643       O653   1.910       .  S
Al643       O652   1.781       .  S
C644        O657   1.262       .  A
C644        C738   1.478       .  S
O645        C655   1.261       .  A
O645       Al647   1.897       .  S
O646        C659   1.260       .  A
O646       Al656   1.890       .  S
Al647       O660   1.913       .  S
Al647       O657   1.910       .  S
Al647       O652   1.782       .  S
O648        C655   1.258       .  A
O648       Al656   1.903       .  S
O649        C658   1.259       .  A
O649       Al656   1.899       .  S
O650       Al656   1.892       .  S
O651        C658   1.263       .  A
O652       Al656   1.779       .  S
O653        C654   1.261       .  A
C654       C1522   1.496       .  S
C655        C786   1.490       .  S
C658       C1125   1.491       .  S
C659        O660   1.263       .  A
C659        C805   1.482       .  S
O661        C676   1.260       .  A
O661       Al669   1.883       .  S
C662        O672   1.258       .  A
C662        O663   1.264       .  A
C662        C773   1.489       .  S
O663       Al665   1.915       .  S
O664        C666   1.257       .  A
O664       Al665   1.892       .  S
Al665       O673   1.897       .  S
Al665       O675   1.912       .  S
Al665       O674   1.778       .  S
C666        O679   1.262       .  A
C666        C741   1.494       .  S
O667        C677   1.260       .  A
O667       Al669   1.887       .  S
O668        C681   1.262       .  A
O668       Al678   1.893       .  S
Al669       O682   1.910       .  S
Al669       O679   1.912       .  S
Al669       O674   1.778       .  S
O670        C677   1.260       .  A
O670       Al678   1.910       .  S
O671        C680   1.260       .  A
O671       Al678   1.903       .  S
O672       Al678   1.884       .  S
O673        C680   1.260       .  A
O674       Al678   1.777       .  S
O675        C676   1.263       .  A
C676       C1653   1.476       .  S
C677        C709   1.486       .  S
C680       C1269   1.483       .  S
C681        O682   1.261       .  A
C681        C901   1.482       .  S
O683        C698   1.262       .  A
O683       Al691   1.905       .  S
C684        O694   1.258       .  A
C684        O685   1.259       .  A
C684        C722   1.473       .  S
O685       Al687   1.904       .  S
O686        C688   1.262       .  A
O686       Al687   1.903       .  S
Al687       O695   1.910       .  S
Al687       O697   1.903       .  S
Al687       O696   1.784       .  S
C688        O701   1.259       .  A
C688        C757   1.492       .  S
O689        C699   1.261       .  A
O689       Al691   1.899       .  S
O690        C703   1.262       .  A
O690       Al700   1.901       .  S
Al691       O704   1.898       .  S
Al691       O701   1.906       .  S
Al691       O696   1.784       .  S
O692        C699   1.259       .  A
O692       Al700   1.899       .  S
O693        C702   1.258       .  A
O693       Al700   1.892       .  S
O694       Al700   1.890       .  S
O695        C702   1.265       .  A
O696       Al700   1.781       .  S
O697        C698   1.262       .  A
C698       C1605   1.489       .  S
C699        C706   1.470       .  S
C702       C1157   1.489       .  S
C703        O704   1.258       .  A
C703        C818   1.491       .  S
C705        C706   1.398       .  A
C705        C710   1.404       .  A
C705        H712   1.084       .  S
C706        C707   1.412       .  A
C707        C708   1.398       .  A
C707        C714   1.508       .  S
C708        C709   1.406       .  A
C708        H713   1.084       .  S
C709        C710   1.423       .  A
C710        C711   1.509       .  S
C711        H715   1.111       .  S
C711        H716   1.110       .  S
C711        H717   1.110       .  S
C714        H718   1.109       .  S
C714        H719   1.110       .  S
C714        H720   1.111       .  S
C721        C722   1.402       .  A
C721        C726   1.404       .  A
C721        H728   1.085       .  S
C722        C723   1.411       .  A
C723        C724   1.401       .  A
C723        C730   1.509       .  S
C724        C725   1.410       .  A
C724        H729   1.084       .  S
C725        C726   1.422       .  A
C726        C727   1.509       .  S
C727        H731   1.111       .  S
C727        H732   1.111       .  S
C727        H733   1.110       .  S
C730        H734   1.110       .  S
C730        H735   1.107       .  S
C730        H736   1.111       .  S
C737        C738   1.402       .  A
C737        C742   1.404       .  A
C737        H744   1.085       .  S
C738        C739   1.410       .  A
C739        C740   1.404       .  A
C739        C746   1.508       .  S
C740        C741   1.411       .  A
C740        H745   1.083       .  S
C741        C742   1.422       .  A
C742        C743   1.510       .  S
C743        H747   1.110       .  S
C743        H748   1.111       .  S
C743        H749   1.110       .  S
C746        H750   1.110       .  S
C746        H751   1.111       .  S
C746        H752   1.111       .  S
C753        C754   1.401       .  A
C753        C758   1.401       .  A
C753        H760   1.084       .  S
C754        C755   1.418       .  A
C755        C756   1.405       .  A
C755        C762   1.508       .  S
C756        C757   1.407       .  A
C756        H761   1.084       .  S
C757        C758   1.423       .  A
C758        C759   1.510       .  S
C759        H763   1.111       .  S
C759        H764   1.110       .  S
C759        H765   1.110       .  S
C762        H766   1.110       .  S
C762        H767   1.110       .  S
C762        H768   1.111       .  S
C769        C770   1.401       .  A
C769        C774   1.401       .  A
C769        H776   1.085       .  S
C770        C771   1.411       .  A
C771        C772   1.402       .  A
C771        C778   1.508       .  S
C772        C773   1.410       .  A
C772        H777   1.084       .  S
C773        C774   1.422       .  A
C774        C775   1.510       .  S
C775        H779   1.111       .  S
C775        H780   1.111       .  S
C775        H781   1.110       .  S
C778        H782   1.108       .  S
C778        H783   1.111       .  S
C778        H784   1.111       .  S
C785        C786   1.406       .  A
C785        C790   1.400       .  A
C785        H792   1.084       .  S
C786        C787   1.424       .  A
C787        C788   1.403       .  A
C787        C794   1.509       .  S
C788        C789   1.400       .  A
C788        H793   1.085       .  S
C789        C790   1.414       .  A
C790        C791   1.506       .  S
C791        H795   1.110       .  S
C791        H796   1.109       .  S
C791        H797   1.109       .  S
C794        H798   1.110       .  S
C794        H799   1.109       .  S
C794        H800   1.111       .  S
C801        C802   1.408       .  A
C801        C806   1.399       .  A
C801        H808   1.083       .  S
C802        C803   1.419       .  A
C803        C804   1.406       .  A
C803        C810   1.508       .  S
C804        C805   1.406       .  A
C804        H809   1.084       .  S
C805        C806   1.415       .  A
C806        C807   1.509       .  S
C807        H811   1.111       .  S
C807        H812   1.109       .  S
C807        H813   1.110       .  S
C810        H814   1.110       .  S
C810        H815   1.110       .  S
C810        H816   1.111       .  S
C817        C818   1.407       .  A
C817        C822   1.404   1_565  A
C817        H824   1.084       .  S
C818        C819   1.424       .  A
C819        C820   1.401   1_565  A
C819        C826   1.510       .  S
C820        C821   1.401       .  A
C820        H825   1.084       .  S
C821        C822   1.415       .  A
C822        C823   1.507       .  S
C823        H827   1.111       .  S
C823        H828   1.109       .  S
C823        H829   1.110       .  S
C826        H830   1.110       .  S
C826        H831   1.108       .  S
C826        H832   1.111       .  S
C833        C834   1.402       .  A
C833        C838   1.397       .  A
C833        H840   1.084       .  S
C834        C835   1.415       .  A
C835        C836   1.404       .  A
C835        C842   1.508       .  S
C836        C837   1.408       .  A
C836        H841   1.084       .  S
C837        C838   1.418       .  A
C838        C839   1.506       .  S
C839        H843   1.111       .  S
C839        H844   1.107       .  S
C839        H845   1.110       .  S
C842        H846   1.108       .  S
C842        H847   1.110       .  S
C842        H848   1.111       .  S
C849        C850   1.408       .  A
C849        C854   1.401       .  A
C849        H856   1.083       .  S
C850        C851   1.421       .  A
C851        C852   1.404       .  A
C851        C858   1.509       .  S
C852        C853   1.403       .  A
C852        H857   1.085       .  S
C853        C854   1.413       .  A
C854        C855   1.509       .  S
C855        H859   1.111       .  S
C855        H860   1.109       .  S
C855        H861   1.110       .  S
C858        H862   1.111       .  S
C858        H863   1.110       .  S
C858        H864   1.111       .  S
C865        C866   1.405       .  A
C865        C870   1.399       .  A
C865        H872   1.084       .  S
C866        C867   1.425       .  A
C867        C868   1.403       .  A
C867        C874   1.509       .  S
C868        C869   1.398       .  A
C868        H873   1.085       .  S
C869        C870   1.412       .  A
C870        C871   1.504       .  S
C871        H875   1.111       .  S
C871        H876   1.109       .  S
C871        H877   1.110       .  S
C874        H878   1.110       .  S
C874        H879   1.110       .  S
C874        H880   1.111       .  S
C881        C882   1.410       .  A
C881        C886   1.402       .  A
C881        H888   1.083       .  S
C882        C883   1.421       .  A
C883        C884   1.403       .  A
C883        C890   1.510       .  S
C884        C885   1.401       .  A
C884        H889   1.083       .  S
C885        C886   1.410       .  A
C886        C887   1.508       .  S
C887        H891   1.111       .  S
C887        H892   1.107       .  S
C887        H893   1.111       .  S
C890        H894   1.110       .  S
C890        H895   1.110       .  S
C890        H896   1.111       .  S
C897        C898   1.405       .  A
C897        C902   1.404   1_545  A
C897        H904   1.084       .  S
C898        C899   1.422       .  A
C899        C900   1.400   1_545  A
C899        C906   1.510       .  S
C900        C901   1.401       .  A
C900        H905   1.084       .  S
C901        C902   1.418       .  A
C902        C903   1.509       .  S
C903        H907   1.111       .  S
C903        H908   1.109       .  S
C903        H909   1.111       .  S
C906        H910   1.109       .  S
C906        H911   1.110       .  S
C906        H912   1.111       .  S
C913        C914   1.405       .  A
C913        C918   1.408       .  A
C913        H920   1.084       .  S
C914        C915   1.418       .  A
C915        C916   1.403       .  A
C915        C922   1.508       .  S
C916        C917   1.405       .  A
C916        H921   1.082       .  S
C917        C918   1.422       .  A
C918        C919   1.508       .  S
C919        H923   1.111       .  S
C919        H924   1.110       .  S
C919        H925   1.104       .  S
C922        H926   1.110       .  S
C922        H927   1.109       .  S
C922        H928   1.111       .  S
C929        C930   1.402       .  A
C929        C934   1.400       .  A
C929        H936   1.084       .  S
C930        C931   1.419       .  A
C931        C932   1.405       .  A
C931        C938   1.508       .  S
C932        C933   1.405       .  A
C932        H937   1.084       .  S
C933        C934   1.421       .  A
C934        C935   1.508       .  S
C935        H939   1.111       .  S
C935        H940   1.110       .  S
C935        H941   1.108       .  S
C938        H942   1.110       .  S
C938        H943   1.110       .  S
C938        H944   1.111       .  S
C945        C946   1.403       .  A
C945        C950   1.403       .  A
C945        H952   1.085       .  S
C946        C947   1.408       .  A
C947        C948   1.403       .  A
C947        C954   1.508       .  S
C948        C949   1.411       .  A
C948        H953   1.083       .  S
C949        C950   1.421       .  A
C950        C951   1.510       .  S
C951        H955   1.111       .  S
C951        H956   1.111       .  S
C951        H957   1.110       .  S
C954        H958   1.109       .  S
C954        H959   1.111       .  S
C954        H960   1.111       .  S
C961        C962   1.403       .  A
C961        C966   1.405   1_655  A
C961        H968   1.084       .  S
C962        C963   1.417       .  A
C963        C964   1.403   1_655  A
C963        C970   1.508       .  S
C964        C965   1.406       .  A
C964        H969   1.083       .  S
C965        C966   1.422       .  A
C966        C967   1.509       .  S
C967        H971   1.111       .  S
C967        H972   1.110       .  S
C967        H973   1.111       .  S
C970        H974   1.109       .  S
C970        H975   1.110       .  S
C970        H976   1.111       .  S
C977        C978   1.411       .  A
C977        C982   1.404   1_655  A
C977        H984   1.083       .  S
C978        C979   1.420       .  A
C979        C980   1.407   1_655  A
C979        C986   1.506       .  S
C980        C981   1.404       .  A
C980        H985   1.084       .  S
C981        C982   1.413       .  A
C982        C983   1.508       .  S
C983        H987   1.111       .  S
C983        H988   1.110       .  S
C983        H989   1.111       .  S
C986        H990   1.111       .  S
C986        H991   1.109       .  S
C986        H992   1.111       .  S
C993        C994   1.411       .  A
C993        C998   1.402       .  A
C993       H1000   1.083       .  S
C994        C995   1.421       .  A
C995        C996   1.401       .  A
C995       C1002   1.510       .  S
C996        C997   1.402       .  A
C996       H1001   1.085       .  S
C997        C998   1.411       .  A
C998        C999   1.508       .  S
C999       H1003   1.111       .  S
C999       H1004   1.109       .  S
C999       H1005   1.111       .  S
C1002      H1006   1.111       .  S
C1002      H1007   1.110       .  S
C1002      H1008   1.111       .  S
C1009      C1010   1.407       .  A
C1009      C1014   1.409       .  A
C1009      H1016   1.084       .  S
C1010      C1011   1.415       .  A
C1011      C1012   1.401       .  A
C1011      C1018   1.509       .  S
C1012      C1013   1.407       .  A
C1012      H1017   1.084       .  S
C1013      C1014   1.421       .  A
C1014      C1015   1.508       .  S
C1015      H1019   1.111       .  S
C1015      H1020   1.110       .  S
C1015      H1021   1.110       .  S
C1018      H1022   1.108       .  S
C1018      H1023   1.110       .  S
C1018      H1024   1.111       .  S
C1025      C1026   1.400       .  A
C1025      C1030   1.407       .  A
C1025      H1032   1.085       .  S
C1026      C1027   1.415       .  A
C1027      C1028   1.400       .  A
C1027      C1034   1.508       .  S
C1028      C1029   1.405       .  A
C1028      H1033   1.084       .  S
C1029      C1030   1.426       .  A
C1030      C1031   1.508       .  S
C1031      H1035   1.111       .  S
C1031      H1036   1.110       .  S
C1031      H1037   1.109       .  S
C1034      H1038   1.109       .  S
C1034      H1039   1.110       .  S
C1034      H1040   1.111       .  S
C1041      C1042   1.401       .  A
C1041      C1046   1.404       .  A
C1041      H1048   1.085       .  S
C1042      C1043   1.413       .  A
C1043      C1044   1.402       .  A
C1043      C1050   1.507       .  S
C1044      C1045   1.408       .  A
C1044      H1049   1.084       .  S
C1045      C1046   1.423       .  A
C1046      C1047   1.509       .  S
C1047      H1051   1.111       .  S
C1047      H1052   1.110       .  S
C1047      H1053   1.110       .  S
C1050      H1054   1.109       .  S
C1050      H1055   1.109       .  S
C1050      H1056   1.111       .  S
C1057      C1058   1.410       .  A
C1057      C1062   1.401       .  A
C1057      H1064   1.083       .  S
C1058      C1059   1.419       .  A
C1059      C1060   1.406       .  A
C1059      C1066   1.507       .  S
C1060      C1061   1.406       .  A
C1060      H1065   1.084       .  S
C1061      C1062   1.414       .  A
C1062      C1063   1.509       .  S
C1063      H1067   1.111       .  S
C1063      H1068   1.108       .  S
C1063      H1069   1.110       .  S
C1066      H1070   1.110       .  S
C1066      H1071   1.110       .  S
C1066      H1072   1.111       .  S
C1073      C1074   1.400       .  A
C1073      C1078   1.406       .  A
C1073      H1080   1.084       .  S
C1074      C1075   1.415       .  A
C1075      C1076   1.400       .  A
C1075      C1082   1.507       .  S
C1076      C1077   1.405       .  A
C1076      H1081   1.084       .  S
C1077      C1078   1.424       .  A
C1078      C1079   1.508       .  S
C1079      H1083   1.111       .  S
C1079      H1084   1.110       .  S
C1079      H1085   1.110       .  S
C1082      H1086   1.109       .  S
C1082      H1087   1.109       .  S
C1082      H1088   1.111       .  S
C1089      C1090   1.412       .  A
C1089      C1094   1.405       .  A
C1089      H1096   1.083       .  S
C1090      C1091   1.421       .  A
C1091      C1092   1.404       .  A
C1091      C1098   1.509       .  S
C1092      C1093   1.403       .  A
C1092      H1097   1.085       .  S
C1093      C1094   1.411       .  A
C1094      C1095   1.507       .  S
C1095      H1099   1.111       .  S
C1095      H1100   1.108       .  S
C1095      H1101   1.111       .  S
C1098      H1102   1.111       .  S
C1098      H1103   1.110       .  S
C1098      H1104   1.111       .  S
C1105      C1106   1.403       .  A
C1105      C1110   1.403       .  A
C1105      H1112   1.084       .  S
C1106      C1107   1.421       .  A
C1107      C1108   1.401       .  A
C1107      C1114   1.510       .  S
C1108      C1109   1.402       .  A
C1108      H1113   1.084       .  S
C1109      C1110   1.421       .  A
C1110      C1111   1.509       .  S
C1111      H1115   1.111       .  S
C1111      H1116   1.110       .  S
C1111      H1117   1.109       .  S
C1114      H1118   1.110       .  S
C1114      H1119   1.110       .  S
C1114      H1120   1.111       .  S
C1121      C1122   1.400       .  A
C1121      C1126   1.401       .  A
C1121      H1128   1.084       .  S
C1122      C1123   1.416       .  A
C1123      C1124   1.403       .  A
C1123      C1130   1.509       .  S
C1124      C1125   1.407       .  A
C1124      H1129   1.084       .  S
C1125      C1126   1.424       .  A
C1126      C1127   1.510       .  S
C1127      H1131   1.111       .  S
C1127      H1132   1.110       .  S
C1127      H1133   1.110       .  S
C1130      H1134   1.109       .  S
C1130      H1135   1.111       .  S
C1130      H1136   1.111       .  S
C1137      C1138   1.411       .  A
C1137      C1142   1.399       .  A
C1137      H1144   1.083       .  S
C1138      C1139   1.418       .  A
C1139      C1140   1.404       .  A
C1139      C1146   1.508       .  S
C1140      C1141   1.404       .  A
C1140      H1145   1.084       .  S
C1141      C1142   1.410       .  A
C1142      C1143   1.509       .  S
C1143      H1147   1.111       .  S
C1143      H1148   1.110       .  S
C1143      H1149   1.111       .  S
C1146      H1150   1.111       .  S
C1146      H1151   1.110       .  S
C1146      H1152   1.111       .  S
C1153      C1154   1.403       .  A
C1153      C1158   1.402       .  A
C1153      H1160   1.084       .  S
C1154      C1155   1.420       .  A
C1155      C1156   1.405       .  A
C1155      C1162   1.509       .  S
C1156      C1157   1.404       .  A
C1156      H1161   1.083       .  S
C1157      C1158   1.422       .  A
C1158      C1159   1.511       .  S
C1159      H1163   1.111       .  S
C1159      H1164   1.109       .  S
C1159      H1165   1.111       .  S
C1162      H1166   1.109       .  S
C1162      H1167   1.111       .  S
C1162      H1168   1.111       .  S
C1169      C1170   1.404       .  A
C1169      C1174   1.402   1_565  A
C1169      H1176   1.084       .  S
C1170      C1171   1.419       .  A
C1171      C1172   1.403   1_565  A
C1171      C1178   1.510       .  S
C1172      C1173   1.405       .  A
C1172      H1177   1.083       .  S
C1173      C1174   1.420       .  A
C1174      C1175   1.510       .  S
C1175      H1179   1.111       .  S
C1175      H1180   1.109       .  S
C1175      H1181   1.111       .  S
C1178      H1182   1.109       .  S
C1178      H1183   1.111       .  S
C1178      H1184   1.111       .  S
C1185      C1186   1.406       .  A
C1185      C1190   1.399       .  A
C1185      H1192   1.084       .  S
C1186      C1187   1.423       .  A
C1187      C1188   1.403       .  A
C1187      C1194   1.509       .  S
C1188      C1189   1.399       .  A
C1188      H1193   1.084       .  S
C1189      C1190   1.414       .  A
C1190      C1191   1.508       .  S
C1191      H1195   1.111       .  S
C1191      H1196   1.109       .  S
C1191      H1197   1.109       .  S
C1194      H1198   1.110       .  S
C1194      H1199   1.109       .  S
C1194      H1200   1.111       .  S
C1201      C1202   1.408       .  A
C1201      C1206   1.399       .  A
C1201      H1208   1.084       .  S
C1202      C1203   1.420       .  A
C1203      C1204   1.405       .  A
C1203      C1210   1.509       .  S
C1204      C1205   1.405       .  A
C1204      H1209   1.085       .  S
C1205      C1206   1.414       .  A
C1206      C1207   1.509       .  S
C1207      H1211   1.111       .  S
C1207      H1212   1.107       .  S
C1207      H1213   1.111       .  S
C1210      H1214   1.110       .  S
C1210      H1215   1.110       .  S
C1210      H1216   1.111       .  S
C1217      C1218   1.406       .  A
C1217      C1222   1.402   1_655  A
C1217      H1224   1.084       .  S
C1218      C1219   1.424       .  A
C1219      C1220   1.403   1_655  A
C1219      C1226   1.509       .  S
C1220      C1221   1.401       .  A
C1220      H1225   1.084       .  S
C1221      C1222   1.416       .  A
C1222      C1223   1.509       .  S
C1223      H1227   1.111       .  S
C1223      H1228   1.109       .  S
C1223      H1229   1.110       .  S
C1226      H1230   1.110       .  S
C1226      H1231   1.108       .  S
C1226      H1232   1.111       .  S
C1233      C1234   1.403       .  A
C1233      C1238   1.406       .  A
C1233      H1240   1.085       .  S
C1234      C1235   1.412       .  A
C1235      C1236   1.405       .  A
C1235      C1242   1.508       .  S
C1236      C1237   1.410       .  A
C1236      H1241   1.083       .  S
C1237      C1238   1.422       .  A
C1238      C1239   1.508       .  S
C1239      H1243   1.111       .  S
C1239      H1244   1.111       .  S
C1239      H1245   1.110       .  S
C1242      H1246   1.108       .  S
C1242      H1247   1.111       .  S
C1242      H1248   1.111       .  S
C1249      C1250   1.404       .  A
C1249      C1254   1.403       .  A
C1249      H1256   1.084       .  S
C1250      C1251   1.414       .  A
C1251      C1252   1.402       .  A
C1251      C1258   1.509       .  S
C1252      C1253   1.409       .  A
C1252      H1257   1.083       .  S
C1253      C1254   1.420       .  A
C1254      C1255   1.510       .  S
C1255      H1259   1.111       .  S
C1255      H1260   1.110       .  S
C1255      H1261   1.110       .  S
C1258      H1262   1.110       .  S
C1258      H1263   1.110       .  S
C1258      H1264   1.111       .  S
C1265      C1266   1.409       .  A
C1265      C1270   1.400   1_655  A
C1265      H1272   1.083       .  S
C1266      C1267   1.418       .  A
C1267      C1268   1.405   1_655  A
C1267      C1274   1.508       .  S
C1268      C1269   1.407       .  A
C1268      H1273   1.084       .  S
C1269      C1270   1.413       .  A
C1270      C1271   1.509       .  S
C1271      H1275   1.111       .  S
C1271      H1276   1.108       .  S
C1271      H1277   1.111       .  S
C1274      H1278   1.110       .  S
C1274      H1279   1.110       .  S
C1274      H1280   1.111       .  S
C1281      C1282   1.403       .  A
C1281      C1286   1.403   1_565  A
C1281      H1288   1.085       .  S
C1282      C1283   1.412       .  A
C1283      C1284   1.397   1_565  A
C1283      C1290   1.510       .  S
C1284      C1285   1.408       .  A
C1284      H1289   1.084       .  S
C1285      C1286   1.420       .  A
C1286      C1287   1.509       .  S
C1287      H1291   1.111       .  S
C1287      H1292   1.111       .  S
C1287      H1293   1.110       .  S
C1290      H1294   1.108       .  S
C1290      H1295   1.111       .  S
C1290      H1296   1.111       .  S
C1297      C1298   1.400       .  A
C1297      C1302   1.403       .  A
C1297      H1304   1.084       .  S
C1298      C1299   1.413       .  A
C1299      C1300   1.397       .  A
C1299      C1306   1.508       .  S
C1300      C1301   1.406       .  A
C1300      H1305   1.083       .  S
C1301      C1302   1.422       .  A
C1302      C1303   1.509       .  S
C1303      H1307   1.111       .  S
C1303      H1308   1.111       .  S
C1303      H1309   1.110       .  S
C1306      H1310   1.109       .  S
C1306      H1311   1.109       .  S
C1306      H1312   1.110       .  S
C1313      C1314   1.404       .  A
C1313      C1318   1.406       .  A
C1313      H1320   1.084       .  S
C1314      C1315   1.410       .  A
C1315      C1316   1.405       .  A
C1315      C1322   1.507       .  S
C1316      C1317   1.412       .  A
C1316      H1321   1.083       .  S
C1317      C1318   1.420       .  A
C1318      C1319   1.508       .  S
C1319      H1323   1.110       .  S
C1319      H1324   1.111       .  S
C1319      H1325   1.110       .  S
C1322      H1326   1.108       .  S
C1322      H1327   1.110       .  S
C1322      H1328   1.111       .  S
C1329      C1330   1.400       .  A
C1329      C1334   1.405       .  A
C1329      H1336   1.084       .  S
C1330      C1331   1.415       .  A
C1331      C1332   1.397       .  A
C1331      C1338   1.507       .  S
C1332      C1333   1.404       .  A
C1332      H1337   1.083       .  S
C1333      C1334   1.423       .  A
C1334      C1335   1.509       .  S
C1335      H1339   1.111       .  S
C1335      H1340   1.110       .  S
C1335      H1341   1.108       .  S
C1338      H1342   1.109       .  S
C1338      H1343   1.109       .  S
C1338      H1344   1.111       .  S
C1345      C1346   1.397       .  A
C1345      C1350   1.399   1_556  A
C1345      H1352   1.085       .  S
C1346      C1347   1.414       .  A
C1347      C1348   1.403   1_556  A
C1347      C1354   1.509       .  S
C1348      C1349   1.406       .  A
C1348      H1353   1.084       .  S
C1349      C1350   1.426       .  A
C1350      C1351   1.511       .  S
C1351      H1355   1.111       .  S
C1351      H1356   1.110       .  S
C1351      H1357   1.110       .  S
C1354      H1358   1.109       .  S
C1354      H1359   1.111       .  S
C1354      H1360   1.111       .  S
C1361      C1362   1.402       .  A
C1361      C1366   1.400   1_556  A
C1361      H1368   1.084       .  S
C1362      C1363   1.417       .  A
C1363      C1364   1.399   1_556  A
C1363      C1370   1.510       .  S
C1364      C1365   1.404       .  A
C1364      H1369   1.084       .  S
C1365      C1366   1.420       .  A
C1366      C1367   1.510       .  S
C1367      H1371   1.111       .  S
C1367      H1372   1.109       .  S
C1367      H1373   1.111       .  S
C1370      H1374   1.109       .  S
C1370      H1375   1.110       .  S
C1370      H1376   1.111       .  S
C1377      C1378   1.403       .  A
C1377      C1382   1.401       .  A
C1377      H1384   1.083       .  S
C1378      C1379   1.419       .  A
C1379      C1380   1.404       .  A
C1379      C1386   1.509       .  S
C1380      C1381   1.405       .  A
C1380      H1385   1.083       .  S
C1381      C1382   1.421       .  A
C1382      C1383   1.510       .  S
C1383      H1387   1.111       .  S
C1383      H1388   1.110       .  S
C1383      H1389   1.109       .  S
C1386      H1390   1.110       .  S
C1386      H1391   1.110       .  S
C1386      H1392   1.111       .  S
C1393      C1394   1.408       .  A
C1393      C1398   1.396       .  A
C1393      H1400   1.084       .  S
C1394      C1395   1.420       .  A
C1395      C1396   1.402       .  A
C1395      C1402   1.508       .  S
C1396      C1397   1.401       .  A
C1396      H1401   1.085       .  S
C1397      C1398   1.411       .  A
C1398      C1399   1.510       .  S
C1399      H1403   1.111       .  S
C1399      H1404   1.110       .  S
C1399      H1405   1.110       .  S
C1402      H1406   1.110       .  S
C1402      H1407   1.110       .  S
C1402      H1408   1.111       .  S
C1409      C1410   1.406       .  A
C1409      C1414   1.398       .  A
C1409      H1416   1.084       .  S
C1410      C1411   1.423       .  A
C1411      C1412   1.402       .  A
C1411      C1418   1.509       .  S
C1412      C1413   1.399       .  A
C1412      H1417   1.085       .  S
C1413      C1414   1.412       .  A
C1414      C1415   1.508       .  S
C1415      H1419   1.111       .  S
C1415      H1420   1.109       .  S
C1415      H1421   1.109       .  S
C1418      H1422   1.110       .  S
C1418      H1423   1.109       .  S
C1418      H1424   1.111       .  S
C1425      C1426   1.409       .  A
C1425      C1430   1.401       .  A
C1425      H1432   1.084       .  S
C1426      C1427   1.422       .  A
C1427      C1428   1.401       .  A
C1427      C1434   1.511       .  S
C1428      C1429   1.402       .  A
C1428      H1433   1.085       .  S
C1429      C1430   1.411       .  A
C1430      C1431   1.509       .  S
C1431      H1435   1.110       .  S
C1431      H1436   1.111       .  S
C1431      H1437   1.106       .  S
C1434      H1438   1.111       .  S
C1434      H1439   1.110       .  S
C1434      H1440   1.111       .  S
C1441      C1442   1.410       .  A
C1441      C1446   1.400       .  A
C1441      H1448   1.083       .  S
C1442      C1443   1.419       .  A
C1443      C1444   1.406       .  A
C1443      C1450   1.508       .  S
C1444      C1445   1.405       .  A
C1444      H1449   1.084       .  S
C1445      C1446   1.412       .  A
C1446      C1447   1.509       .  S
C1447      H1451   1.111       .  S
C1447      H1452   1.110       .  S
C1447      H1453   1.111       .  S
C1450      H1454   1.110       .  S
C1450      H1455   1.110       .  S
C1450      H1456   1.111       .  S
C1457      C1458   1.401       .  A
C1457      C1462   1.401       .  A
C1457      H1464   1.085       .  S
C1458      C1459   1.419       .  A
C1459      C1460   1.399       .  A
C1459      C1466   1.508       .  S
C1460      C1461   1.402       .  A
C1460      H1465   1.084       .  S
C1461      C1462   1.422       .  A
C1462      C1463   1.509       .  S
C1463      H1467   1.111       .  S
C1463      H1468   1.110       .  S
C1463      H1469   1.109       .  S
C1466      H1470   1.109       .  S
C1466      H1471   1.108       .  S
C1466      H1472   1.111       .  S
C1473      C1474   1.405       .  A
C1473      C1478   1.402       .  A
C1473      H1480   1.084       .  S
C1474      C1475   1.423       .  A
C1475      C1476   1.403       .  A
C1475      C1482   1.510       .  S
C1476      C1477   1.401       .  A
C1476      H1481   1.084       .  S
C1477      C1478   1.418       .  A
C1478      C1479   1.509       .  S
C1479      H1483   1.111       .  S
C1479      H1484   1.109       .  S
C1479      H1485   1.109       .  S
C1482      H1486   1.110       .  S
C1482      H1487   1.110       .  S
C1482      H1488   1.111       .  S
C1489      C1490   1.402       .  A
C1489      C1494   1.404       .  A
C1489      H1496   1.085       .  S
C1490      C1491   1.410       .  A
C1491      C1492   1.404       .  A
C1491      C1498   1.508       .  S
C1492      C1493   1.411       .  A
C1492      H1497   1.083       .  S
C1493      C1494   1.422       .  A
C1494      C1495   1.509       .  S
C1495      H1499   1.111       .  S
C1495      H1500   1.111       .  S
C1495      H1501   1.110       .  S
C1498      H1502   1.108       .  S
C1498      H1503   1.111       .  S
C1498      H1504   1.111       .  S
C1505      C1506   1.400       .  A
C1505      C1510   1.404       .  A
C1505      H1512   1.084       .  S
C1506      C1507   1.416       .  A
C1507      C1508   1.404       .  A
C1507      C1514   1.509       .  S
C1508      C1509   1.407       .  A
C1508      H1513   1.084       .  S
C1509      C1510   1.425       .  A
C1510      C1511   1.510       .  S
C1511      H1515   1.111       .  S
C1511      H1516   1.110       .  S
C1511      H1517   1.109       .  S
C1514      H1518   1.109       .  S
C1514      H1519   1.111       .  S
C1514      H1520   1.111       .  S
C1521      C1522   1.407       .  A
C1521      C1526   1.405       .  A
C1521      H1528   1.084       .  S
C1522      C1523   1.423       .  A
C1523      C1524   1.406       .  A
C1523      C1530   1.509       .  S
C1524      C1525   1.403       .  A
C1524      H1529   1.084       .  S
C1525      C1526   1.417       .  A
C1526      C1527   1.509       .  S
C1527      H1531   1.111       .  S
C1527      H1532   1.109       .  S
C1527      H1533   1.111       .  S
C1530      H1534   1.110       .  S
C1530      H1535   1.111       .  S
C1530      H1536   1.111       .  S
C1537      C1538   1.406       .  A
C1537      C1542   1.406       .  A
C1537      H1544   1.084       .  S
C1538      C1539   1.414       .  A
C1539      C1540   1.400       .  A
C1539      C1546   1.510       .  S
C1540      C1541   1.409       .  A
C1540      H1545   1.083       .  S
C1541      C1542   1.419       .  A
C1542      C1543   1.506       .  S
C1543      H1547   1.111       .  S
C1543      H1548   1.109       .  S
C1543      H1549   1.110       .  S
C1546      H1550   1.110       .  S
C1546      H1551   1.111       .  S
C1546      H1552   1.111       .  S
C1553      C1554   1.407       .  A
C1553      C1558   1.401   1_556  A
C1553      H1560   1.084       .  S
C1554      C1555   1.419       .  A
C1555      C1556   1.402   1_556  A
C1555      C1562   1.509       .  S
C1556      C1557   1.405       .  A
C1556      H1561   1.084       .  S
C1557      C1558   1.415       .  A
C1558      C1559   1.509       .  S
C1559      H1563   1.111       .  S
C1559      H1564   1.110       .  S
C1559      H1565   1.110       .  S
C1562      H1566   1.110       .  S
C1562      H1567   1.110       .  S
C1562      H1568   1.111       .  S
C1569      C1570   1.402       .  A
C1569      C1574   1.405       .  A
C1569      H1576   1.084       .  S
C1570      C1571   1.415       .  A
C1571      C1572   1.403       .  A
C1571      C1578   1.508       .  S
C1572      C1573   1.408       .  A
C1572      H1577   1.083       .  S
C1573      C1574   1.423       .  A
C1574      C1575   1.509       .  S
C1575      H1579   1.111       .  S
C1575      H1580   1.110       .  S
C1575      H1581   1.108       .  S
C1578      H1582   1.109       .  S
C1578      H1583   1.109       .  S
C1578      H1584   1.111       .  S
C1585      C1586   1.407       .  A
C1585      C1590   1.403   1_565  A
C1585      H1592   1.084       .  S
C1586      C1587   1.425       .  A
C1587      C1588   1.400   1_565  A
C1587      C1594   1.510       .  S
C1588      C1589   1.398       .  A
C1588      H1593   1.084       .  S
C1589      C1590   1.415       .  A
C1590      C1591   1.509       .  S
C1591      H1595   1.111       .  S
C1591      H1596   1.109       .  S
C1591      H1597   1.111       .  S
C1594      H1598   1.110       .  S
C1594      H1599   1.108       .  S
C1594      H1600   1.111       .  S
C1601      C1602   1.409       .  A
C1601      C1606   1.403   1_556  A
C1601      H1608   1.084       .  S
C1602      C1603   1.416       .  A
C1603      C1604   1.403   1_556  A
C1603      C1610   1.508       .  S
C1604      C1605   1.408       .  A
C1604      H1609   1.084       .  S
C1605      C1606   1.415       .  A
C1606      C1607   1.507       .  S
C1607      H1611   1.111       .  S
C1607      H1612   1.108       .  S
C1607      H1613   1.110       .  S
C1610      H1614   1.110       .  S
C1610      H1615   1.110       .  S
C1610      H1616   1.111       .  S
C1617      C1618   1.400       .  A
C1617      C1622   1.403       .  A
C1617      H1624   1.084       .  S
C1618      C1619   1.417       .  A
C1619      C1620   1.400       .  A
C1619      C1626   1.509       .  S
C1620      C1621   1.405       .  A
C1620      H1625   1.084       .  S
C1621      C1622   1.423       .  A
C1622      C1623   1.509       .  S
C1623      H1627   1.111       .  S
C1623      H1628   1.110       .  S
C1623      H1629   1.110       .  S
C1626      H1630   1.109       .  S
C1626      H1631   1.108       .  S
C1626      H1632   1.111       .  S
C1633      C1634   1.404       .  A
C1633      C1638   1.404       .  A
C1633      H1640   1.084       .  S
C1634      C1635   1.414       .  A
C1635      C1636   1.405       .  A
C1635      C1642   1.508       .  S
C1636      C1637   1.409       .  A
C1636      H1641   1.083       .  S
C1637      C1638   1.420       .  A
C1638      C1639   1.507       .  S
C1639      H1643   1.111       .  S
C1639      H1644   1.109       .  S
C1639      H1645   1.110       .  S
C1642      H1646   1.109       .  S
C1642      H1647   1.111       .  S
C1642      H1648   1.111       .  S
C1649      C1650   1.407       .  A
C1649      C1654   1.401       .  A
C1649      H1656   1.084       .  S
C1650      C1651   1.423       .  A
C1651      C1652   1.399       .  A
C1651      C1658   1.510       .  S
C1652      C1653   1.400       .  A
C1652      H1657   1.085       .  S
C1653      C1654   1.414       .  A
C1654      C1655   1.508       .  S
C1655      H1659   1.111       .  S
C1655      H1660   1.109       .  S
C1655      H1661   1.110       .  S
C1658      H1662   1.110       .  S
C1658      H1663   1.110       .  S
C1658      H1664   1.111       .  S
C1665      C1666   1.408       .  A
C1665      C1670   1.398   1_565  A
C1665      H1672   1.083       .  S
C1666      C1667   1.419       .  A
C1667      C1668   1.403   1_565  A
C1667      C1674   1.508       .  S
C1668      C1669   1.404       .  A
C1668      H1673   1.084       .  S
C1669      C1670   1.412       .  A
C1670      C1671   1.509       .  S
C1671      H1675   1.111       .  S
C1671      H1676   1.107       .  S
C1671      H1677   1.111       .  S
C1674      H1678   1.111       .  S
C1674      H1679   1.110       .  S
C1674      H1680   1.111       .  S
C1681      C1682   1.409       .  A
C1681      C1686   1.400       .  A
C1681      H1688   1.083       .  S
C1682      C1683   1.422       .  A
C1683      C1684   1.405       .  A
C1683      C1690   1.510       .  S
C1684      C1685   1.403       .  A
C1684      H1689   1.084       .  S
C1685      C1686   1.408       .  A
C1686      C1687   1.508       .  S
C1687      H1691   1.111       .  S
C1687      H1692   1.109       .  S
C1687      H1693   1.111       .  S
C1690      H1694   1.111       .  S
C1690      H1695   1.110       .  S
C1690      H1696   1.111       .  S
C1697      C1698   1.410       .  A
C1697      C1702   1.400       .  A
C1697      H1704   1.083       .  S
C1698      C1699   1.420       .  A
C1699      C1700   1.401       .  A
C1699      C1706   1.510       .  S
C1700      C1701   1.402       .  A
C1700      H1705   1.085       .  S
C1701      C1702   1.409       .  A
C1702      C1703   1.508       .  S
C1703      H1707   1.111       .  S
C1703      H1708   1.110       .  S
C1703      H1709   1.111       .  S
C1706      H1710   1.111       .  S
C1706      H1711   1.110       .  S
C1706      H1712   1.111       .  S
C1713      C1714   1.412       .  A
C1713      C1718   1.404       .  A
C1713      H1720   1.083       .  S
C1714      C1715   1.421       .  A
C1715      C1716   1.403       .  A
C1715      C1722   1.510       .  S
C1716      C1717   1.402       .  A
C1716      H1721   1.085       .  S
C1717      C1718   1.408       .  A
C1718      C1719   1.507       .  S
C1719      H1723   1.111       .  S
C1719      H1724   1.109       .  S
C1719      H1725   1.111       .  S
C1722      H1726   1.110       .  S
C1722      H1727   1.110       .  S
C1722      H1728   1.111       .  S
C1729      C1730   1.406       .  A
C1729      C1734   1.406       .  A
C1729      H1736   1.084       .  S
C1730      C1731   1.419       .  A
C1731      C1732   1.405       .  A
C1731      C1738   1.509       .  S
C1732      C1733   1.407       .  A
C1732      H1737   1.083       .  S
C1733      C1734   1.420       .  A
C1734      C1735   1.509       .  S
C1735      H1739   1.111       .  S
C1735      H1740   1.110       .  S
C1735      H1741   1.110       .  S
C1738      H1742   1.110       .  S
C1738      H1743   1.110       .  S
C1738      H1744   1.111       .  S
C1745      C1746   1.406       .  A
C1745      C1750   1.401       .  A
C1745      H1752   1.084       .  S
C1746      C1747   1.425       .  A
C1747      C1748   1.401       .  A
C1747      C1754   1.510       .  S
C1748      C1749   1.399       .  A
C1748      H1753   1.084       .  S
C1749      C1750   1.415       .  A
C1750      C1751   1.508       .  S
C1751      H1755   1.111       .  S
C1751      H1756   1.109       .  S
C1751      H1757   1.110       .  S
C1754      H1758   1.110       .  S
C1754      H1759   1.110       .  S
C1754      H1760   1.111       .  S
C1761      C1762   1.410       .  A
C1761      C1766   1.401       .  A
C1761      H1768   1.083       .  S
C1762      C1763   1.420       .  A
C1763      C1764   1.403       .  A
C1763      C1770   1.507       .  S
C1764      C1765   1.403       .  A
C1764      H1769   1.084       .  S
C1765      C1766   1.411       .  A
C1766      C1767   1.509       .  S
C1767      H1771   1.111       .  S
C1767      H1772   1.109       .  S
C1767      H1773   1.111       .  S
C1770      H1774   1.110       .  S
C1770      H1775   1.110       .  S
C1770      H1776   1.111       .  S
C1777      C1778   1.401       .  A
C1777      C1782   1.402   1_556  A
C1777      H1784   1.084       .  S
C1778      C1779   1.417       .  A
C1779      C1780   1.406   1_556  A
C1779      C1786   1.509       .  S
C1780      C1781   1.407       .  A
C1780      H1785   1.084       .  S
C1781      C1782   1.425       .  A
C1782      C1783   1.510       .  S
C1783      H1787   1.111       .  S
C1783      H1788   1.110       .  S
C1783      H1789   1.109       .  S
C1786      H1790   1.109       .  S
C1786      H1791   1.111       .  S
C1786      H1792   1.111       .  S
C1793      C1794   1.398       .  A
C1793      C1798   1.399       .  A
C1793      H1800   1.084       .  S
C1794      C1795   1.406       .  A
C1795      C1796   1.402       .  A
C1795      C1802   1.507       .  S
C1796      C1797   1.410       .  A
C1796      H1801   1.084       .  S
C1797      C1798   1.421       .  A
C1798      C1799   1.508       .  S
C1799      H1803   1.111       .  S
C1799      H1804   1.110       .  S
C1799      H1805   1.110       .  S
C1802      H1806   1.110       .  S
C1802      H1807   1.111       .  S
C1802      H1808   1.111       .  S
C1809      C1810   1.400       .  A
C1809      C1814   1.400   1_655  A
C1809      H1816   1.084       .  S
C1810      C1811   1.415       .  A
C1811      C1812   1.403   1_655  A
C1811      C1818   1.508       .  S
C1812      C1813   1.406       .  A
C1812      H1817   1.084       .  S
C1813      C1814   1.424       .  A
C1814      C1815   1.510       .  S
C1815      H1819   1.111       .  S
C1815      H1820   1.110       .  S
C1815      H1821   1.108       .  S
C1818      H1822   1.109       .  S
C1818      H1823   1.110       .  S
C1818      H1824   1.111       .  S
C1825      C1826   1.403       .  A
C1825      C1830   1.404   1_556  A
C1825      H1832   1.084       .  S
C1826      C1827   1.414       .  A
C1827      C1828   1.399   1_556  A
C1827      C1834   1.510       .  S
C1828      C1829   1.408       .  A
C1828      H1833   1.083       .  S
C1829      C1830   1.420       .  A
C1830      C1831   1.509       .  S
C1831      H1835   1.111       .  S
C1831      H1836   1.110       .  S
C1831      H1837   1.110       .  S
C1834      H1838   1.109       .  S
C1834      H1839   1.111       .  S
C1834      H1840   1.111       .  S
C1841      C1842   1.409       .  A
C1841      C1846   1.403       .  A
C1841      H1848   1.083       .  S
C1842      C1843   1.418       .  A
C1843      C1844   1.401       .  A
C1843      C1850   1.509       .  S
C1844      C1845   1.404       .  A
C1844      H1849   1.082       .  S
C1845      C1846   1.413       .  A
C1846      C1847   1.508       .  S
C1847      H1851   1.111       .  S
C1847      H1852   1.110       .  S
C1847      H1853   1.110       .  S
C1850      H1854   1.110       .  S
C1850      H1855   1.110       .  S
C1850      H1856   1.111       .  S
C1857      C1858   1.409       .  A
C1857      C1862   1.405       .  A
C1857      H1864   1.084       .  S
C1858      C1859   1.420       .  A
C1859      C1860   1.401       .  A
C1859      C1866   1.509       .  S
C1860      C1861   1.404       .  A
C1860      H1865   1.084       .  S
C1861      C1862   1.416       .  A
C1862      C1863   1.508       .  S
C1863      H1867   1.111       .  S
C1863      H1868   1.110       .  S
C1863      H1869   1.110       .  S
C1866      H1870   1.109       .  S
C1866      H1871   1.110       .  S
C1866      H1872   1.111       .  S
C1873      C1874   1.407       .  A
C1873      C1878   1.405       .  A
C1873      H1880   1.083       .  S
C1874      C1875   1.425       .  A
C1875      C1876   1.401       .  A
C1875      C1882   1.509       .  S
C1876      C1877   1.399       .  A
C1876      H1881   1.084       .  S
C1877      C1878   1.415       .  A
C1878      C1879   1.509       .  S
C1879      H1883   1.111       .  S
C1879      H1884   1.109       .  S
C1879      H1885   1.111       .  S
C1882      H1886   1.110       .  S
C1882      H1887   1.108       .  S
C1882      H1888   1.111       .  S
C1889      C1890   1.402       .  A
C1889      C1894   1.401   1_655  A
C1889      H1896   1.084       .  S
C1890      C1891   1.419       .  A
C1891      C1892   1.402   1_655  A
C1891      C1898   1.510       .  S
C1892      C1893   1.403       .  A
C1892      H1897   1.084       .  S
C1893      C1894   1.421       .  A
C1894      C1895   1.508       .  S
C1895      H1899   1.111       .  S
C1895      H1900   1.109       .  S
C1895      H1901   1.108       .  S
C1898      H1902   1.109       .  S
C1898      H1903   1.111       .  S
C1898      H1904   1.111       .  S
C1905      C1906   1.406       .  A
C1905      C1910   1.403       .  A
C1905      H1912   1.083       .  S
C1906      C1907   1.417       .  A
C1907      C1908   1.405       .  A
C1907      C1914   1.508       .  S
C1908      C1909   1.407       .  A
C1908      H1913   1.083       .  S
C1909      C1910   1.418       .  A
C1910      C1911   1.508       .  S
C1911      H1915   1.111       .  S
C1911      H1916   1.107       .  S
C1911      H1917   1.110       .  S
C1914      H1918   1.110       .  S
C1914      H1919   1.110       .  S
C1914      H1920   1.111       .  S
C1921      C1922   1.409       .  A
C1921      C1926   1.404       .  A
C1921      H1928   1.084       .  S
C1922      C1923   1.417       .  A
C1923      C1924   1.401       .  A
C1923      C1930   1.509       .  S
C1924      C1925   1.406       .  A
C1924      H1929   1.084       .  S
C1925      C1926   1.415       .  A
C1926      C1927   1.508       .  S
C1927      H1931   1.111       .  S
C1927      H1932   1.108       .  S
C1927      H1933   1.111       .  S
C1930      H1934   1.110       .  S
C1930      H1935   1.110       .  S
C1930      H1936   1.111       .  S
C1937      C1938   1.406       .  A
C1937      C1942   1.399       .  A
C1937      H1944   1.084       .  S
C1938      C1939   1.416       .  A
C1939      C1940   1.400       .  A
C1939      C1946   1.509       .  S
C1940      C1941   1.405       .  A
C1940      H1945   1.084       .  S
C1941      C1942   1.416       .  A
C1942      C1943   1.510       .  S
C1943      H1947   1.111       .  S
C1943      H1948   1.110       .  S
C1943      H1949   1.111       .  S
C1946      H1950   1.109       .  S
C1946      H1951   1.111       .  S
C1946      H1952   1.111       .  S
C1953      C1954   1.410       .  A
C1953      C1958   1.403       .  A
C1953      H1960   1.083       .  S
C1954      C1955   1.421       .  A
C1955      C1956   1.404       .  A
C1955      C1962   1.509       .  S
C1956      C1957   1.402       .  A
C1956      H1961   1.084       .  S
C1957      C1958   1.412       .  A
C1958      C1959   1.509       .  S
C1959      H1963   1.111       .  S
C1959      H1964   1.110       .  S
C1959      H1965   1.110       .  S
C1962      H1966   1.110       .  S
C1962      H1967   1.110       .  S
C1962      H1968   1.111       .  S
C1969      C1970   1.404       .  A
C1969      C1974   1.406       .  A
C1969      H1976   1.084       .  S
C1970      C1971   1.415       .  A
C1971      C1972   1.400       .  A
C1971      C1978   1.510       .  S
C1972      C1973   1.407       .  A
C1972      H1977   1.083       .  S
C1973      C1974   1.421       .  A
C1974      C1975   1.508       .  S
C1975      H1979   1.111       .  S
C1975      H1980   1.111       .  S
C1975      H1981   1.110       .  S
C1978      H1982   1.110       .  S
C1978      H1983   1.110       .  S
C1978      H1984   1.111       .  S
C1985      C1986   1.400       .  A
C1985      C1990   1.402       .  A
C1985      H1992   1.085       .  S
C1986      C1987   1.414       .  A
C1987      C1988   1.403       .  A
C1987      C1994   1.509       .  S
C1988      C1989   1.407       .  A
C1988      H1993   1.084       .  S
C1989      C1990   1.425       .  A
C1990      C1991   1.510       .  S
C1991      H1995   1.111       .  S
C1991      H1996   1.110       .  S
C1991      H1997   1.110       .  S
C1994      H1998   1.109       .  S
C1994      H1999   1.111       .  S
C1994      H2000   1.111       .  S
C2001      C2002   1.403       .  A
C2001      C2006   1.404       .  A
C2001      H2008   1.084       .  S
C2002      C2003   1.412       .  A
C2003      C2004   1.399       .  A
C2003      C2010   1.509       .  S
C2004      C2005   1.409       .  A
C2004      H2009   1.083       .  S
C2005      C2006   1.420       .  A
C2006      C2007   1.509       .  S
C2007      H2011   1.111       .  S
C2007      H2012   1.110       .  S
C2007      H2013   1.110       .  S
C2010      H2014   1.110       .  S
C2010      H2015   1.111       .  S
C2010      H2016   1.111       .  S
C2017      C2018   1.401       .  A
C2017      C2022   1.404   1_655  A
C2017      H2024   1.084       .  S
C2018      C2019   1.414       .  A
C2019      C2020   1.404   1_655  A
C2019      C2026   1.509       .  S
C2020      C2021   1.408       .  A
C2020      H2025   1.083       .  S
C2021      C2022   1.425       .  A
C2022      C2023   1.510       .  S
C2023      H2027   1.111       .  S
C2023      H2028   1.110       .  S
C2023      H2029   1.110       .  S
C2026      H2030   1.109       .  S
C2026      H2031   1.111       .  S
C2026      H2032   1.111       .  S
C2033      C2034   1.402       .  A
C2033      C2038   1.404   1_556  A
C2033      H2040   1.084       .  S
C2034      C2035   1.413       .  A
C2035      C2036   1.404   1_556  A
C2035      C2042   1.508       .  S
C2036      C2037   1.410       .  A
C2036      H2041   1.083       .  S
C2037      C2038   1.421       .  A
C2038      C2039   1.508       .  S
C2039      H2043   1.111       .  S
C2039      H2044   1.110       .  S
C2039      H2045   1.110       .  S
C2042      H2046   1.110       .  S
C2042      H2047   1.111       .  S
C2042      H2048   1.111       .  S
C2049      C2050   1.408       .  A
C2049      C2054   1.404       .  A
C2049      H2056   1.084       .  S
C2050      C2051   1.421       .  A
C2051      C2052   1.406       .  A
C2051      C2058   1.508       .  S
C2052      C2053   1.400       .  A
C2052      H2057   1.084       .  S
C2053      C2054   1.412       .  A
C2054      C2055   1.507       .  S
C2055      H2059   1.111       .  S
C2055      H2060   1.109       .  S
C2055      H2061   1.110       .  S
C2058      H2062   1.111       .  S
C2058      H2063   1.109       .  S
C2058      H2064   1.111       .  S
C2065      C2066   1.405       .  A
C2065      C2070   1.406       .  A
C2065      H2072   1.084       .  S
C2066      C2067   1.415       .  A
C2067      C2068   1.404       .  A
C2067      C2074   1.508       .  S
C2068      C2069   1.410       .  A
C2068      H2073   1.084       .  S
C2069      C2070   1.420       .  A
C2070      C2071   1.507       .  S
C2071      H2075   1.111       .  S
C2071      H2076   1.109       .  S
C2071      H2077   1.110       .  S
C2074      H2078   1.109       .  S
C2074      H2079   1.111       .  S
C2074      H2080   1.111       .  S
C2081      C2082   1.402       .  A
C2081      C2086   1.399   1_565  A
C2081      H2088   1.084       .  S
C2082      C2083   1.416       .  A
C2083      C2084   1.401   1_565  A
C2083      C2090   1.509       .  S
C2084      C2085   1.406       .  A
C2084      H2089   1.084       .  S
C2085      C2086   1.422       .  A
C2086      C2087   1.510       .  S
C2087      H2091   1.111       .  S
C2087      H2092   1.110       .  S
C2087      H2093   1.108       .  S
C2090      H2094   1.109       .  S
C2090      H2095   1.111       .  S
C2090      H2096   1.111       .  S
C2097      C2098   1.407       .  A
C2097      C2102   1.405   1_556  A
C2097      H2104   1.084       .  S
C2098      C2099   1.425       .  A
C2099      C2100   1.399   1_556  A
C2099      C2106   1.511       .  S
C2100      C2101   1.398       .  A
C2100      H2105   1.085       .  S
C2101      C2102   1.416       .  A
C2102      C2103   1.509       .  S
C2103      H2107   1.111       .  S
C2103      H2108   1.109       .  S
C2103      H2109   1.111       .  S
C2106      H2110   1.110       .  S
C2106      H2111   1.109       .  S
C2106      H2112   1.111       .  S
C2113      C2114   1.409       .  A
C2113      C2118   1.399       .  A
C2113      H2120   1.084       .  S
C2114      C2115   1.420       .  A
C2115      C2116   1.400       .  A
C2115      C2122   1.510       .  S
C2116      C2117   1.403       .  A
C2116      H2121   1.085       .  S
C2117      C2118   1.410       .  A
C2118      C2119   1.508       .  S
C2119      H2123   1.111       .  S
C2119      H2124   1.110       .  S
C2119      H2125   1.111       .  S
C2122      H2126   1.110       .  S
C2122      H2127   1.110       .  S
C2122      H2128   1.111       .  S
C2129      C2130   1.403       .  A
C2129      C2134   1.401       .  A
C2129      H2136   1.084       .  S
C2130      C2131   1.417       .  A
C2131      C2132   1.401       .  A
C2131      C2138   1.509       .  S
C2132      C2133   1.406       .  A
C2132      H2137   1.083       .  S
C2133      C2134   1.420       .  A
C2134      C2135   1.510       .  S
C2135      H2139   1.111       .  S
C2135      H2140   1.110       .  S
C2135      H2141   1.110       .  S
C2138      H2142   1.110       .  S
C2138      H2143   1.109       .  S
C2138      H2144   1.111       .  S
C2145      C2146   1.403       .  A
C2145      C2150   1.402       .  A
C2145      H2152   1.084       .  S
C2146      C2147   1.421       .  A
C2147      C2148   1.405       .  A
C2147      C2154   1.509       .  S
C2148      C2149   1.404       .  A
C2148      H2153   1.084       .  S
C2149      C2150   1.421       .  A
C2150      C2151   1.510       .  S
C2151      H2155   1.111       .  S
C2151      H2156   1.109       .  S
C2151      H2157   1.110       .  S
C2154      H2158   1.109       .  S
C2154      H2159   1.111       .  S
C2154      H2160   1.111       .  S
C2161      C2162   1.408       .  A
C2161      C2166   1.408   1_655  A
C2161      H2168   1.084       .  S
C2162      C2163   1.422       .  A
C2163      C2164   1.401   1_655  A
C2163      C2170   1.510       .  S
C2164      C2165   1.402       .  A
C2164      H2169   1.084       .  S
C2165      C2166   1.418       .  A
C2166      C2167   1.508       .  S
C2167      H2171   1.111       .  S
C2167      H2172   1.109       .  S
C2167      H2173   1.111       .  S
C2170      H2174   1.109       .  S
C2170      H2175   1.111       .  S
C2170      H2176   1.111       .  S
C2177      C2178   1.408       .  A
C2177      C2182   1.405   1_565  A
C2177      H2184   1.084       .  S
C2178      C2179   1.424       .  A
C2179      C2180   1.400   1_565  A
C2179      C2186   1.511       .  S
C2180      C2181   1.399       .  A
C2180      H2185   1.084       .  S
C2181      C2182   1.415       .  A
C2182      C2183   1.509       .  S
C2183      H2187   1.111       .  S
C2183      H2188   1.109       .  S
C2183      H2189   1.111       .  S
C2186      H2190   1.110       .  S
C2186      H2191   1.111       .  S
C2186      H2192   1.111       .  S
C2193      C2194   1.410       .  A
C2193      C2198   1.403       .  A
C2193      H2200   1.083       .  S
C2194      C2195   1.419       .  A
C2195      C2196   1.404       .  A
C2195      C2202   1.509       .  S
C2196      C2197   1.404       .  A
C2196      H2201   1.084       .  S
C2197      C2198   1.413       .  A
C2198      C2199   1.509       .  S
C2199      H2203   1.111       .  S
C2199      H2204   1.110       .  S
C2199      H2205   1.111       .  S
C2202      H2206   1.110       .  S
C2202      H2207   1.110       .  S
C2202      H2208   1.111       .  S
C2209      C2210   1.408       .  A
C2209      C2214   1.401       .  A
C2209      H2216   1.083       .  S
C2210      C2211   1.421       .  A
C2211      C2212   1.400       .  A
C2211      C2218   1.511       .  S
C2212      C2213   1.399       .  A
C2212      H2217   1.085       .  S
C2213      C2214   1.408       .  A
C2214      C2215   1.508       .  S
C2215      H2219   1.111       .  S
C2215      H2220   1.110       .  S
C2215      H2221   1.111       .  S
C2218      H2222   1.111       .  S
C2218      H2223   1.110       .  S
C2218      H2224   1.111       .  S
C2225      C2226   1.401       .  A
C2225      C2230   1.403       .  A
C2225      H2232   1.085       .  S
C2226      C2227   1.411       .  A
C2227      C2228   1.405       .  A
C2227      C2234   1.507       .  S
C2228      C2229   1.410       .  A
C2228      H2233   1.084       .  S
C2229      C2230   1.421       .  A
C2230      C2231   1.509       .  S
C2231      H2235   1.111       .  S
C2231      H2236   1.111       .  S
C2231      H2237   1.109       .  S
C2234      H2238   1.111       .  S
C2234      H2239   1.108       .  S
C2234      H2240   1.110       .  S
