geometry optimzed in LAMMPS
_audit_creation_date              2020-11-30 
_audit_creation_method            'lammps2cif' 
_symmetry_space_group_name_H-M    'P1' 
_symmetry_Int_Tables_number       1 
_symmetry_cell_setting            triclinic 
loop_ 
_symmetry_equiv_pos_as_xyz 
  x,y,z 
_cell_length_a                    46.22675702 
_cell_length_b                    30.882590315602993 
_cell_length_c                    36.80397150471466 
_cell_angle_alpha                 95.07189448687113 
_cell_angle_beta                  94.30527552335549 
_cell_angle_gamma                 70.96953992662945 
loop_ 
_atom_site_label 
_atom_site_type_symbol 
_atom_site_fract_x 
_atom_site_fract_y 
_atom_site_fract_z 
_atom_site_charge 
O1          O  0.08225612  0.20475809  0.01952066    -0.79600
O2          O  0.43935144  0.22777061  0.00830723    -0.64300
O3          O  0.02252671  0.21258156  0.49115689    -1.12100
C4          C  0.99112591  0.37236871  0.49168341     1.07300
O5          O  0.41608693  0.29197643  0.48001404    -0.77500
O6          O  0.46116150  0.28799485  0.43495922    -0.65100
Ni7        Ni  0.05343555  0.17192353  0.02150117     1.34900
C8          C  0.48866256  0.27669192  0.42567370     0.86000
O9          O  0.48693157  0.15588429  0.99159053    -0.78100
O10         O  0.03039495  0.13037705  0.02528971    -0.88300
C11         C  0.41558114  0.25713718  0.49553019     0.85600
O12         O  0.03720513  0.20826167  0.06435944    -0.66600
O13         O  0.46810746  0.36597188  0.47366233    -0.85800
C14         C  0.00969169  0.21961059  0.07359627     0.86400
C15         C  0.50731858  0.12408259  0.00732835     1.08000
H16         H  0.47202125  0.29454177  0.03332255     0.39800
O17         O  0.47588645  0.28394900  0.00810359    -1.08500
O18         O  0.01045289  0.28161717  0.44706310    -0.65100
Ni19       Ni  0.01746433  0.27680905  0.49916052     1.26300
O20         O  0.48789970  0.21484059  0.05214484    -0.65400
O21         O  0.01145776  0.34065268  0.50757529    -0.77700
C22         C  0.08279695  0.23954137  0.00395118     0.85800
O23         O  0.05906102  0.26873793  0.49091507    -0.64800
Ni24       Ni  0.44499175  0.32459670  0.47773749     1.27400
Ni25       Ni  0.48094040  0.21971555  0.00006259     1.26100
H26         H  0.02639844  0.20197996  0.46594694     0.40300
O27         O  0.08225955  0.20481726  0.26950341    -0.79600
O28         O  0.43936443  0.22784828  0.25829556    -0.64300
O29         O  0.02253446  0.21266099  0.24114249    -1.10900
C30         C  0.99113837  0.37244870  0.24167388     1.07300
O31         O  0.41608642  0.29207565  0.23003096    -0.77500
O32         O  0.46115957  0.28807581  0.18495851    -0.65100
Ni33       Ni  0.05343627  0.17199475  0.27148309     1.34900
C34         C  0.48866035  0.27675599  0.17566620     0.86000
O35         O  0.48693415  0.15596751  0.24156361    -0.78100
O36         O  0.03038917  0.13046071  0.27527537    -0.88300
C37         C  0.41558849  0.25722205  0.24553484     0.85600
O38         O  0.03721064  0.20833255  0.31434183    -0.66600
O39         O  0.46811877  0.36605384  0.22365311    -0.85800
C40         C  0.00969873  0.21966781  0.32357959     0.86400
C41         C  0.50731423  0.12416760  0.25731125     1.08000
H42         H  0.47203790  0.29461675  0.28331290     0.39800
O43         O  0.47589839  0.28402872  0.25809275    -1.08500
O44         O  0.01045448  0.28169249  0.19704473    -0.65100
Ni45       Ni  0.01747680  0.27688584  0.24914307     1.26300
O46         O  0.48790680  0.21490987  0.30212356    -0.65400
O47         O  0.01147418  0.34072864  0.25755693    -0.77700
C48         C  0.08280981  0.23959216  0.25393166     0.85800
O49         O  0.05907760  0.26880099  0.24089238    -0.64800
Ni50       Ni  0.44499821  0.32468641  0.22773829     1.27400
Ni51       Ni  0.48094838  0.21979637  0.25004363     1.26100
H52         H  0.02640784  0.20205631  0.21593313     0.40300
O53         O  0.33227325  0.20494815  0.01993705    -0.79600
O54         O  0.18931902  0.22808897  0.00887831    -0.64300
O55         O  0.27250547  0.21288851  0.49175832    -1.10900
C56         C  0.24111547  0.37271518  0.49241810     1.07300
O57         O  0.16610037  0.29221904  0.48047814    -0.77500
O58         O  0.21115174  0.28846719  0.43553918    -0.65100
Ni59       Ni  0.30340005  0.17224526  0.02210361     1.34900
C60         C  0.23865918  0.27710704  0.42627430     0.86000
O61         O  0.23692739  0.15619096  0.99221869    -0.78100
O62         O  0.28031450  0.13080549  0.02606512    -0.88300
C63         C  0.16557313  0.25736332  0.49595351     0.85600
O64         O  0.28719999  0.20873483  0.06491388    -0.66600
O65         O  0.21805713  0.36638740  0.47443947    -0.85800
C66         C  0.25969506  0.22003209  0.07418086     0.86400
C67         C  0.25727997  0.12444393  0.00805641     1.08000
H68         H  0.22200209  0.29485507  0.03390997     0.39800
O69         O  0.22586628  0.28426404  0.00869702    -1.08500
O70         O  0.26045501  0.28195220  0.44768534    -0.65100
Ni71       Ni  0.26745405  0.27711185  0.49977055     1.26300
O72         O  0.23790337  0.21518333  0.05275858    -0.65400
O73         O  0.26147600  0.34094328  0.50821576    -0.77700
C74         C  0.33279652  0.23972562  0.50436156     0.85800
O75         O  0.30903829  0.26902475  0.49148176    -0.64800
Ni76       Ni  0.19496878  0.32493626  0.47836508     1.27400
Ni77       Ni  0.23092062  0.22003139  0.00066403     1.26100
H78         H  0.27637955  0.20228305  0.46654350     0.40300
O79         O  0.33231760  0.20493929  0.27000676    -0.79600
O80         O  0.18936553  0.22801158  0.25887362    -0.64300
O81         O  0.27255635  0.21283047  0.24177805    -1.10900
C82         C  0.24115909  0.37265880  0.24242454     1.07300
O83         O  0.16614889  0.29217040  0.23049481    -0.77500
O84         O  0.21119007  0.28842161  0.18555293    -0.65100
Ni85       Ni  0.30345444  0.17220239  0.27214910     1.34900
C86         C  0.23869548  0.27706166  0.17628324     0.86000
O87         O  0.23698772  0.15612054  0.24223608    -0.78100
O88         O  0.28037943  0.13073420  0.27608017    -0.88300
C89         C  0.16561856  0.25730968  0.24595755     0.85600
O90         O  0.28722919  0.20868566  0.31495529    -0.66600
O91         O  0.21810126  0.36633017  0.22444870    -0.85800
C92         C  0.25971981  0.21997855  0.32420676     0.86400
C93         C  0.25734226  0.12437388  0.25807214     1.08000
H94         H  0.22205449  0.29478385  0.28393137     0.39800
O95         O  0.22591591  0.28419665  0.25871725    -1.08500
O96         O  0.26049793  0.28188317  0.19769449    -0.65100
Ni97       Ni  0.26749867  0.27705490  0.24978125     1.26300
O98         O  0.23793977  0.21510986  0.30277463    -0.65400
O99         O  0.26151970  0.34088757  0.25822218    -0.77700
C100        C  0.33283705  0.23970109  0.25438676     0.85800
O101        O  0.30907760  0.26897390  0.24148565    -0.64800
Ni102      Ni  0.19501521  0.32488212  0.22838185     1.27400
Ni103      Ni  0.23097286  0.21996118  0.25068017     1.26100
H104        H  0.27643496  0.20222032  0.21656494     0.40300
O105        O  0.02097705  0.42251330  0.49696558    -0.73200
O106        O  0.02840834  0.04302486  0.00557008    -0.73200
O107        O  0.02459818  0.98335243  0.05314904    -0.73300
O108        O  0.02477770  0.48225349  0.44859599    -0.73300
O109        O  0.47383478  0.01311696  0.44569878    -0.73200
O110        O  0.47365162  0.01420467  0.05024663    -0.73200
O111        O  0.47746422  0.07393768  0.00190345    -0.73200
O112        O  0.47003967  0.45342118  0.99328220    -0.73300
Ni113      Ni  0.02650471  0.48169318  0.50109499     1.25400
Ni114      Ni  0.47193022  0.01476106  0.99775300     1.25400
C115        C  0.99424378  0.41824647  0.49389344     0.89000
C116        C  0.00419877  0.07820144  0.00500365     0.88900
C117        C  0.99906644  0.99881468  0.06877920     0.89000
C118        C  0.99936209  0.49766700  0.43006689     0.89100
O119        O  0.02840202  0.04311424  0.25557065    -0.73200
O120        O  0.02098627  0.42259813  0.24697274    -0.73200
O121        O  0.02478833  0.48232855  0.19860362    -0.73300
O122        O  0.02458982  0.48344382  0.30315686    -0.73300
O123        O  0.47364484  0.01429044  0.30024773    -0.73200
O124        O  0.47384248  0.51318959  0.19570049    -0.73200
O125        O  0.47004185  0.45350057  0.24328349    -0.73200
O126        O  0.47745782  0.07402401  0.25189722    -0.73300
Ni127      Ni  0.02651086  0.48177928  0.25110161     1.25400
Ni128      Ni  0.47192765  0.01484376  0.24775267     1.25400
C129        C  0.50419205  0.07828913  0.25499554     0.89000
C130        C  0.49425383  0.41832837  0.24389352     0.88900
C131        C  0.49937348  0.49772598  0.18007075     0.89000
C132        C  0.49905799  0.99889328  0.31878276     0.89100
O133        O  0.27838457  0.04338557  0.50640225    -0.73200
O134        O  0.27097599  0.42285704  0.49779017    -0.73200
O135        O  0.27479180  0.48258994  0.44943927    -0.73300
O136        O  0.27459456  0.48369740  0.05398259    -0.73300
O137        O  0.22364194  0.01455134  0.05108453    -0.73200
O138        O  0.22384549  0.51344314  0.44653020    -0.73200
O139        O  0.22002933  0.45377326  0.99411141    -0.73200
O140        O  0.22743694  0.07429038  0.00271881    -0.73300
Ni141      Ni  0.27650888  0.48203791  0.50193161     1.25400
Ni142      Ni  0.22191613  0.01510850  0.99858375     1.25400
C143        C  0.25416815  0.07856244  0.00580163     0.89000
C144        C  0.24424095  0.41859251  0.49469721     0.88900
C145        C  0.24937968  0.49798437  0.43090361     0.89000
C146        C  0.24906553  0.49914889  0.06961578     0.89100
O147        O  0.27101814  0.42279934  0.24778749    -0.73200
O148        O  0.27843649  0.04331958  0.25640451    -0.73200
O149        O  0.27463661  0.48363054  0.30398604    -0.73300
O150        O  0.27482664  0.48253973  0.19943245    -0.73300
O151        O  0.22387448  0.01339921  0.19653582    -0.73200
O152        O  0.22368549  0.01449179  0.30108320    -0.73200
O153        O  0.22749220  0.07422785  0.25272870    -0.73200
O154        O  0.22007432  0.45371287  0.24411401    -0.73300
Ni155      Ni  0.27655119  0.48197818  0.25193026     1.25400
Ni156      Ni  0.22196154  0.01505018  0.24858875     1.25400
C157        C  0.24428331  0.41853613  0.24469901     0.89000
C158        C  0.25422584  0.07849391  0.25581257     0.88900
C159        C  0.24909974  0.99909312  0.31961528     0.89000
C160        C  0.24941035  0.49794446  0.18090326     0.89100
C161        C  0.24941081  0.49822212  0.39170046    -0.12000
C162        C  0.24907971  0.49885305  0.35881975    -0.13600
C163        C  0.24905557  0.49888579  0.10881948    -0.12000
C164        C  0.24942364  0.49821191  0.14170010    -0.13600
C165        C  0.49937917  0.49794732  0.39086474    -0.12000
C166        C  0.49903248  0.99862586  0.35798498    -0.13600
C167        C  0.49939236  0.49795830  0.14086654    -0.12000
C168        C  0.49904465  0.99858678  0.10798340    -0.13600
C169        C  0.24579884  0.25751668  0.39016065    -0.12000
C170        C  0.25256009  0.23953463  0.36032456    -0.13600
C171        C  0.24582099  0.25750692  0.14015953    -0.12000
C172        C  0.25255779  0.23955927  0.11030892    -0.13600
C173        C  0.38649568  0.25091458  0.24864598    -0.12000
C174        C  0.36193074  0.24601895  0.25130601    -0.13600
C175        C  0.11191362  0.24599758  0.25112452    -0.12000
C176        C  0.13651590  0.25090842  0.24878398    -0.13600
C177        C  0.36189894  0.24601124  0.50128016    -0.12000
C178        C  0.38648084  0.25085369  0.49863315    -0.13600
C179        C  0.11189225  0.24597331  0.50113752    -0.12000
C180        C  0.13647742  0.25093833  0.49878498    -0.13600
C181        C  0.00254802  0.23915334  0.35971401    -0.12000
C182        C  0.49579599  0.25710021  0.38956082    -0.13600
C183        C  0.99578950  0.25712280  0.13956041    -0.12000
C184        C  0.00253919  0.23913562  0.10972289    -0.13600
O185        O  0.08225771  0.20474550  0.51950798    -0.79600
O186        O  0.43935245  0.22776864  0.50830977    -0.64300
O187        O  0.02252734  0.21258448  0.99116217    -1.12100
C188        C  0.99112896  0.37237040  0.99168379     1.07300
O189        O  0.41608684  0.29198300  0.98001631    -0.77500
O190        O  0.46116020  0.28800089  0.93496163    -0.65100
Ni191      Ni  0.05343508  0.17191607  0.52149271     1.34900
C192        C  0.48866120  0.27669533  0.92567576     0.86000
O193        O  0.48692912  0.15588357  0.49158620    -0.78100
O194        O  0.03039160  0.13037442  0.52528571    -0.88300
C195        C  0.41558058  0.25714104  0.99552811     0.85600
O196        O  0.03720914  0.20825558  0.56435204    -0.66600
O197        O  0.46810893  0.36597598  0.97366468    -0.85800
C198        C  0.00969634  0.21960550  0.57359135     0.86400
C199        C  0.50731438  0.12408166  0.50732520     1.08000
H200        H  0.47202111  0.29453840  0.53331980     0.39800
O201        O  0.47588654  0.28394582  0.50810129    -1.08500
O202        O  0.01045240  0.28161750  0.94706488    -0.65100
Ni203      Ni  0.01746440  0.27681162  0.99916264     1.26300
O204        O  0.48790300  0.21483597  0.55214199    -0.65400
O205        O  0.01145948  0.34065400  0.00757611    -0.77700
C206        C  0.08279804  0.23953412  0.50394575     0.85800
O207        O  0.05906035  0.26873972  0.99091468    -0.64800
Ni208      Ni  0.44499213  0.32460206  0.97774039     1.27400
Ni209      Ni  0.48094016  0.21971320  0.50006004     1.26100
H210        H  0.02640040  0.20198131  0.96595336     0.40300
O211        O  0.08225724  0.20482241  0.76951201    -0.79600
O212        O  0.43936271  0.22785198  0.75829293    -0.64300
O213        O  0.02253407  0.21266147  0.74114390    -1.10900
C214        C  0.99113637  0.37245022  0.74166792     1.07300
O215        O  0.41608769  0.29206877  0.73001399    -0.77500
O216        O  0.46116346  0.28807470  0.68494952    -0.65100
Ni217      Ni  0.05343505  0.17199735  0.77148719     1.34900
C218        C  0.48866513  0.27675308  0.67566050     0.86000
O219        O  0.48693259  0.15596904  0.74156769    -0.78100
O220        O  0.03038910  0.13046129  0.77527686    -0.88300
C221        C  0.41558815  0.25721990  0.74552331     0.85600
O222        O  0.03720744  0.20833358  0.81434533    -0.66600
O223        O  0.46811650  0.36605558  0.72364770    -0.85800
C224        C  0.00969496  0.21967193  0.82358122     0.86400
C225        C  0.50731304  0.12416913  0.75731469     1.08000
H226        H  0.47203465  0.29462156  0.78330548     0.39800
O227        O  0.47589677  0.28403061  0.75808649    -1.08500
O228        O  0.01045823  0.28168795  0.69704141    -0.65100
Ni229      Ni  0.01747604  0.27688685  0.74914041     1.26300
O230        O  0.48790278  0.21491803  0.80212374    -0.65400
O231        O  0.01147280  0.34073019  0.75755034    -0.77700
C232        C  0.08280888  0.23959541  0.75393887     0.85800
O233        O  0.05907787  0.26880115  0.74089392    -0.64800
Ni234      Ni  0.44499777  0.32468421  0.72772774     1.27400
Ni235      Ni  0.48094722  0.21979804  0.75004289     1.26100
H236        H  0.02640840  0.20205447  0.71593488     0.40300
O237        O  0.33227261  0.20495476  0.51996211    -0.79600
O238        O  0.18932152  0.22807840  0.50887720    -0.64300
O239        O  0.27250152  0.21289477  0.99174728    -1.10900
C240        C  0.24111244  0.37272077  0.99241608     1.07300
O241        O  0.16609969  0.29221859  0.98046425    -0.77500
O242        O  0.21115399  0.28846964  0.93553049    -0.65100
Ni243      Ni  0.30340174  0.17224472  0.52212053     1.34900
C244        C  0.23866190  0.27711368  0.92626834     0.86000
O245        O  0.23693244  0.15618441  0.49222244    -0.78100
O246        O  0.28031765  0.13079971  0.52607346    -0.88300
C247        C  0.16557126  0.25736928  0.99594838     0.85600
O248        O  0.28719450  0.20873365  0.56492826    -0.66600
O249        O  0.21805553  0.36639240  0.97443382    -0.85800
C250        C  0.25968842  0.22002801  0.57419004     0.86400
C251        C  0.25728406  0.12443790  0.50806180     1.08000
H252        H  0.22200647  0.29484761  0.53391817     0.39800
O253        O  0.22586932  0.28425805  0.50870464    -1.08500
O254        O  0.26045462  0.28196558  0.94768113    -0.65100
Ni255      Ni  0.26745100  0.27711847  0.99976547     1.26300
O256        O  0.23790045  0.21517455  0.55276390    -0.65400
O257        O  0.26147187  0.34094927  0.00821553    -0.77700
C258        C  0.33279502  0.23972811  0.00434822     0.85800
O259        O  0.30903535  0.26903533  0.99148001    -0.64800
Ni260      Ni  0.19496712  0.32493937  0.97835473     1.27400
Ni261      Ni  0.23092386  0.22002451  0.50066940     1.26100
H262        H  0.27637277  0.20229281  0.96653108     0.40300
O263        O  0.33231955  0.20493384  0.76999421    -0.79600
O264        O  0.18936659  0.22801129  0.75888336    -0.64300
O265        O  0.27255534  0.21282934  0.74177545    -1.10900
C266        C  0.24116199  0.37265717  0.74242970     1.07300
O267        O  0.16614706  0.29217906  0.73051688    -0.77500
O268        O  0.21118150  0.28842767  0.68556449    -0.65100
Ni269      Ni  0.30345610  0.17219863  0.77214163     1.34900
C270        C  0.23868550  0.27706606  0.67628918     0.86000
O271        O  0.23698659  0.15612070  0.74223635    -0.78100
O272        O  0.28038047  0.13073243  0.77607636    -0.88300
C273        C  0.16561837  0.25731399  0.74597444     0.85600
O274        O  0.28723571  0.20868154  0.81495015    -0.66600
O275        O  0.21810188  0.36633088  0.72445796    -0.85800
C276        C  0.25972737  0.21997402  0.82420540     0.86400
C277        C  0.25734239  0.12437294  0.75806995     1.08000
H278        H  0.22206075  0.29477976  0.78394079     0.39800
O279        O  0.22591835  0.28419558  0.75872528    -1.08500
O280        O  0.26049087  0.28188669  0.69769563    -0.65100
Ni281      Ni  0.26749973  0.27705274  0.74978101     1.26300
O282        O  0.23794610  0.21510260  0.80277696    -0.65400
O283        O  0.26152352  0.34088441  0.75822455    -0.77700
C284        C  0.33283759  0.23969630  0.75437403     0.85800
O285        O  0.30907710  0.26897025  0.74147640    -0.64800
Ni286      Ni  0.19501445  0.32488669  0.72839717     1.27400
Ni287      Ni  0.23097307  0.21996077  0.75068400     1.26100
H288        H  0.27643112  0.20222105  0.71656166     0.40300
O289        O  0.02098366  0.42251106  0.99696468    -0.73200
O290        O  0.02840144  0.04302544  0.50556980    -0.73200
O291        O  0.02458968  0.98335592  0.55314952    -0.73300
O292        O  0.02478620  0.48225070  0.94859593    -0.73300
O293        O  0.47384168  0.01311673  0.94569945    -0.73200
O294        O  0.47364315  0.01420839  0.55024539    -0.73200
O295        O  0.47745743  0.07393931  0.50190136    -0.73200
O296        O  0.47003288  0.45342038  0.49328227    -0.73300
Ni297      Ni  0.02651345  0.48169034  0.00109465     1.25400
Ni298      Ni  0.47192312  0.01476216  0.49775203     1.25400
C299        C  0.99424961  0.41824631  0.99389285     0.89000
C300        C  0.00419239  0.07820217  0.50500196     0.88900
C301        C  0.99905752  0.99881983  0.56877883     0.89000
C302        C  0.99937055  0.49766438  0.93006718     0.89100
O303        O  0.02840052  0.04311566  0.75557021    -0.73200
O304        O  0.02098394  0.42259992  0.74696558    -0.73200
O305        O  0.02478146  0.48233667  0.69859991    -0.73300
O306        O  0.02459273  0.48343916  0.80315312    -0.73300
O307        O  0.47364715  0.01428663  0.80025024    -0.73200
O308        O  0.47383553  0.51319771  0.69570351    -0.73200
O309        O  0.47003949  0.45350261  0.74328356    -0.73200
O310        O  0.47745625  0.07402599  0.75190254    -0.73300
Ni311      Ni  0.02650889  0.48178086  0.75109749     1.25400
Ni312      Ni  0.47192566  0.01484580  0.74775545     1.25400
C313        C  0.50419063  0.07829079  0.75499871     0.89000
C314        C  0.49425155  0.41833023  0.74388890     0.88900
C315        C  0.49936503  0.49773569  0.68007041     0.89000
C316        C  0.49906162  0.99888814  0.81878240     0.89100
O317        O  0.27838186  0.04339174  0.00640030    -0.73200
O318        O  0.27097322  0.42286225  0.99779088    -0.73200
O319        O  0.27479040  0.48259264  0.94943941    -0.73300
O320        O  0.27459795  0.48369040  0.55398302    -0.73300
O321        O  0.22364363  0.01454631  0.55108596    -0.73200
O322        O  0.22384406  0.51344586  0.94652827    -0.73200
O323        O  0.22003210  0.45376818  0.49411262    -0.73200
O324        O  0.22743975  0.07428598  0.50272202    -0.73300
Ni325      Ni  0.27650601  0.48204322  0.00193134     1.25400
Ni326      Ni  0.22191722  0.01510488  0.49858561     1.25400
C327        C  0.25417140  0.07855687  0.50580521     0.89000
C328        C  0.24423812  0.41859780  0.99469664     0.88900
C329        C  0.24937884  0.49798642  0.93090287     0.89000
C330        C  0.24906906  0.49914199  0.56961664     0.89100
O331        O  0.27102164  0.42279731  0.74779012    -0.73200
O332        O  0.27843767  0.04331907  0.75640228    -0.73200
O333        O  0.27463931  0.48363113  0.80398646    -0.73300
O334        O  0.27482895  0.48253617  0.69943293    -0.73300
O335        O  0.22387604  0.01339520  0.69653667    -0.73200
O336        O  0.22368892  0.01449067  0.80108401    -0.73200
O337        O  0.22749323  0.07422591  0.75272771    -0.73200
O338        O  0.22007774  0.45371024  0.74411670    -0.73300
Ni339      Ni  0.27655365  0.48197690  0.75193069     1.25400
Ni340      Ni  0.22196398  0.01504767  0.74858971     1.25400
C341        C  0.24428684  0.41853386  0.74470261     0.89000
C342        C  0.25422658  0.07849280  0.75581044     0.88900
C343        C  0.24910345  0.99909271  0.81961559     0.89000
C344        C  0.24941262  0.49793977  0.68090373     0.89100
C345        C  0.24941157  0.49822298  0.89170012    -0.12000
C346        C  0.24908206  0.49885323  0.85881969    -0.13600
C347        C  0.24905906  0.49887866  0.60882015    -0.12000
C348        C  0.24942616  0.49820574  0.64170065    -0.13600
C349        C  0.49938747  0.49794185  0.89086482    -0.12000
C350        C  0.49903888  0.99861950  0.85798480    -0.13600
C351        C  0.49938076  0.49797008  0.64086620    -0.12000
C352        C  0.49903462  0.99859582  0.60798304    -0.13600
C353        C  0.24580595  0.25751960  0.89015682    -0.12000
C354        C  0.25256960  0.23953350  0.86032259    -0.13600
C355        C  0.24580678  0.25750925  0.64016513    -0.12000
C356        C  0.25254541  0.23955824  0.61031597    -0.13600
C357        C  0.38649528  0.25091133  0.74863083    -0.12000
C358        C  0.36193066  0.24601461  0.75129036    -0.13600
C359        C  0.11191297  0.24600214  0.75113755    -0.12000
C360        C  0.13651591  0.25091243  0.74880125    -0.13600
C361        C  0.36189712  0.24601514  0.00126822    -0.12000
C362        C  0.38647981  0.25085696  0.99862600    -0.13600
C363        C  0.11189083  0.24598073  0.00114037    -0.12000
C364        C  0.13647533  0.25094625  0.99878338    -0.13600
C365        C  0.00254406  0.23915713  0.85971559    -0.12000
C366        C  0.49579329  0.25710390  0.88956265    -0.13600
C367        C  0.99579623  0.25711917  0.63955544    -0.12000
C368        C  0.00254591  0.23913117  0.60971820    -0.13600
O369        O  0.08225765  0.70475474  0.01951988    -0.79600
O370        O  0.43935239  0.72777131  0.00830725    -0.64300
O371        O  0.02252665  0.71258053  0.49115699    -1.12100
C372        C  0.99112863  0.87236771  0.49168278     1.07300
O373        O  0.41608761  0.79197990  0.48001370    -0.77500
O374        O  0.46116295  0.78799478  0.43495897    -0.65100
Ni375      Ni  0.05343648  0.67192168  0.02150117     1.34900
C376        C  0.48866407  0.77669116  0.42567356     0.86000
O377        O  0.48693228  0.65588397  0.99159076    -0.78100
O378        O  0.03039523  0.63037642  0.02529059    -0.88300
C379        C  0.41558087  0.75714145  0.49553016     0.85600
O380        O  0.03720657  0.70826066  0.06435923    -0.66600
O381        O  0.46811043  0.86597116  0.47366096    -0.85800
C382        C  0.00969315  0.71960999  0.07359624     0.86400
C383        C  0.50731888  0.62408219  0.00732908     1.08000
H384        H  0.47202289  0.79454163  0.03332231     0.39800
O385        O  0.47588815  0.78394862  0.00810344    -1.08500
O386        O  0.01045449  0.78161571  0.44706307    -0.65100
Ni387      Ni  0.01746547  0.77680784  0.49916057     1.26300
O388        O  0.48790094  0.71484045  0.05214495    -0.65400
O389        O  0.01145988  0.84065147  0.50757523    -0.77700
C390        C  0.08279883  0.73953813  0.00395094     0.85800
O391        O  0.05906259  0.76873481  0.49091562    -0.64800
Ni392      Ni  0.44499348  0.82459797  0.47773669     1.27400
Ni393      Ni  0.48094158  0.71971524  0.00006264     1.26100
H394        H  0.02639836  0.70197868  0.46594723     0.40300
O395        O  0.08226047  0.70481416  0.26950258    -0.79600
O396        O  0.43936474  0.72784923  0.25829505    -0.64300
O397        O  0.02253515  0.71266017  0.24114239    -1.10900
C398        C  0.99114028  0.87244780  0.24167332     1.07300
O399        O  0.41608741  0.79207713  0.23003073    -0.77500
O400        O  0.46116130  0.78807453  0.18495836    -0.65100
Ni401      Ni  0.05343644  0.67199337  0.27148312     1.34900
C402        C  0.48866211  0.77675490  0.17566626     0.86000
O403        O  0.48693431  0.65596737  0.24156334    -0.78100
O404        O  0.03038851  0.63046078  0.27527645    -0.88300
C405        C  0.41558901  0.75722395  0.24553478     0.85600
O406        O  0.03721122  0.70833230  0.31434148    -0.66600
O407        O  0.46812123  0.86605262  0.22365176    -0.85800
C408        C  0.00969931  0.71966779  0.32357927     0.86400
C409        C  0.50731383  0.62416759  0.25731182     1.08000
H410        H  0.47203874  0.79461666  0.28331238     0.39800
O411        O  0.47589946  0.78402853  0.25809238    -1.08500
O412        O  0.01045607  0.78169182  0.19704490    -0.65100
Ni413      Ni  0.01747798  0.77688498  0.24914325     1.26300
O414        O  0.48790729  0.71490997  0.30212331    -0.65400
O415        O  0.01147561  0.84072792  0.25755723    -0.77700
C416        C  0.08281108  0.73958921  0.25393142     0.85800
O417        O  0.05907903  0.76879941  0.24089319    -0.64800
Ni418      Ni  0.44499989  0.82468644  0.22773752     1.27400
Ni419      Ni  0.48094895  0.71979629  0.25004327     1.26100
H420        H  0.02640863  0.70205549  0.21593288     0.40300
O421        O  0.33227449  0.70495309  0.01993973    -0.79600
O422        O  0.18932179  0.72808445  0.00887816    -0.64300
O423        O  0.27250700  0.71288963  0.49175873    -1.10900
C424        C  0.24111036  0.87271718  0.49241761     1.07300
O425        O  0.16610113  0.79221084  0.48047552    -0.77500
O426        O  0.21115140  0.78846547  0.43553803    -0.65100
Ni427      Ni  0.30340333  0.67224669  0.02210460     1.34900
C428        C  0.23865883  0.77710706  0.42627366     0.86000
O429        O  0.23693183  0.65618811  0.99221990    -0.78100
O430        O  0.28032011  0.63080355  0.02606460    -0.88300
C431        C  0.16557498  0.75735543  0.49595210     0.85600
O432        O  0.28720216  0.70873407  0.06491514    -0.66600
O433        O  0.21805239  0.86638773  0.47443942    -0.85800
C434        C  0.25969716  0.72003075  0.07418155     0.86400
C435        C  0.25728540  0.62444142  0.00805684     1.08000
H436        H  0.22200237  0.79485362  0.03390950     0.39800
O437        O  0.22586694  0.78426236  0.00869651    -1.08500
O438        O  0.26045419  0.78195310  0.44768508    -0.65100
Ni439      Ni  0.26745289  0.77711391  0.49977037     1.26300
O440        O  0.23790566  0.71518212  0.05275891    -0.65400
O441        O  0.26147207  0.84094621  0.50821488    -0.77700
C442        C  0.33279565  0.73973286  0.50436268     0.85800
O443        O  0.30903682  0.76903030  0.49148221    -0.64800
Ni444      Ni  0.19496695  0.82493251  0.47836393     1.27400
Ni445      Ni  0.23092323  0.72002906  0.00066434     1.26100
H446        H  0.27638134  0.70228422  0.46654381     0.40300
O447        O  0.33231843  0.70494410  0.27000874    -0.79600
O448        O  0.18936770  0.72800676  0.25887220    -0.64300
O449        O  0.27255820  0.71283109  0.24177879    -1.10900
C450        C  0.24115582  0.87265976  0.24242405     1.07300
O451        O  0.16614987  0.79216480  0.23049279    -0.77500
O452        O  0.21119080  0.78841891  0.18555216    -0.65100
Ni453      Ni  0.30345691  0.67220451  0.27215032     1.34900
C454        C  0.23869631  0.77706033  0.17628320     0.86000
O455        O  0.23699202  0.65611780  0.24223622    -0.78100
O456        O  0.28038377  0.63073376  0.27608074    -0.88300
C457        C  0.16562033  0.75730396  0.24595585     0.85600
O458        O  0.28723026  0.70868699  0.31495610    -0.66600
O459        O  0.21809889  0.86632924  0.22444758    -0.85800
C460        C  0.25972078  0.71997866  0.32420683     0.86400
C461        C  0.25734713  0.62437202  0.25807253     1.08000
H462        H  0.22205379  0.79478222  0.28393038     0.39800
O463        O  0.22591582  0.78419513  0.25871650    -1.08500
O464        O  0.26049811  0.78188363  0.19769478    -0.65100
Ni465      Ni  0.26749832  0.77705626  0.24978166     1.26300
O466        O  0.23794130  0.71510859  0.30277433    -0.65400
O467        O  0.26151699  0.84088962  0.25822219    -0.77700
C468        C  0.33283700  0.73970614  0.25438851     0.85800
O469        O  0.30907713  0.76897799  0.24148713    -0.64800
Ni470      Ni  0.19501460  0.82487898  0.22838046     1.27400
Ni471      Ni  0.23097494  0.71995900  0.25067979     1.26100
H472        H  0.27643739  0.70222099  0.21656588     0.40300
O473        O  0.02097991  0.92251232  0.49696488    -0.73200
O474        O  0.02840800  0.54302425  0.00557113    -0.73200
O475        O  0.02459732  0.48335186  0.05315000    -0.73300
O476        O  0.02478028  0.98225250  0.44859501    -0.73300
O477        O  0.47383224  0.51311797  0.44569977    -0.73200
O478        O  0.47365087  0.51420524  0.05024776    -0.73200
O479        O  0.47746399  0.57393807  0.00190469    -0.73200
O480        O  0.47004135  0.95341992  0.99328131    -0.73300
Ni481      Ni  0.02650735  0.98169241  0.50109407     1.25400
Ni482      Ni  0.47192934  0.51476185  0.99775412     1.25400
C483        C  0.99424667  0.91824540  0.49389282     0.89000
C484        C  0.00419866  0.57820125  0.00500473     0.88900
C485        C  0.99906564  0.49881459  0.06878025     0.89000
C486        C  0.99936466  0.99766602  0.43006589     0.89100
O487        O  0.02840114  0.54311412  0.25557201    -0.73200
O488        O  0.02098792  0.92259775  0.24697164    -0.73200
O489        O  0.02478918  0.98232880  0.19860239    -0.73300
O490        O  0.02459149  0.98344357  0.30315560    -0.73300
O491        O  0.47364314  0.51429136  0.30024851    -0.73200
O492        O  0.47384333  0.01318928  0.19569965    -0.73200
O493        O  0.47004356  0.95349959  0.24328269    -0.73200
O494        O  0.47745697  0.57402453  0.25189789    -0.73300
Ni495      Ni  0.02651212  0.98177922  0.25110033     1.25400
Ni496      Ni  0.47192637  0.51484450  0.24775344     1.25400
C497        C  0.50419132  0.57828927  0.25499648     0.89000
C498        C  0.49425569  0.91832759  0.24389274     0.88900
C499        C  0.49937424  0.99772616  0.18006970     0.89000
C500        C  0.49905612  0.49889385  0.31878376     0.89100
O501        O  0.27839173  0.54338268  0.50640251    -0.73200
O502        O  0.27096939  0.92286033  0.49778946    -0.73200
O503        O  0.27478545  0.98259278  0.44943886    -0.73300
O504        O  0.27458840  0.98370048  0.05398216    -0.73300
O505        O  0.22364813  0.51454884  0.05108613    -0.73200
O506        O  0.22383908  0.01344502  0.44652856    -0.73200
O507        O  0.22002501  0.95377415  0.99411012    -0.73200
O508        O  0.22744276  0.57428799  0.00272066    -0.73300
Ni509      Ni  0.27650180  0.98204109  0.50193114     1.25400
Ni510      Ni  0.22192140  0.51510682  0.99858537     1.25400
C511        C  0.25417402  0.57855972  0.00580245     0.89000
C512        C  0.24423461  0.91859517  0.49469632     0.88900
C513        C  0.24937357  0.99798641  0.43090260     0.89000
C514        C  0.24905908  0.99915170  0.06961472     0.89100
O515        O  0.27101334  0.92280169  0.24778631    -0.73200
O516        O  0.27844212  0.54331739  0.25640567    -0.73200
O517        O  0.27463146  0.98363264  0.30398490    -0.73300
O518        O  0.27482054  0.98254246  0.19943109    -0.73300
O519        O  0.22388063  0.51339724  0.19653653    -0.73200
O520        O  0.22369067  0.51449018  0.30108391    -0.73200
O521        O  0.22749783  0.57422562  0.25272945    -0.73200
O522        O  0.22006942  0.95371402  0.24411347    -0.73300
Ni523      Ni  0.27654572  0.98198059  0.25192901     1.25400
Ni524      Ni  0.22196705  0.51504842  0.24858941     1.25400
C525        C  0.24427880  0.91853772  0.24469825     0.89000
C526        C  0.25423139  0.57849173  0.25581340     0.88900
C527        C  0.24910483  0.49909142  0.31961621     0.89000
C528        C  0.24940402  0.99794683  0.18090220     0.89100
C529        C  0.24940536  0.99822361  0.39169949    -0.12000
C530        C  0.24907469  0.99885444  0.35881883    -0.13600
C531        C  0.24904862  0.99888853  0.10881837    -0.12000
C532        C  0.24941686  0.99821440  0.14169898    -0.13600
C533        C  0.49938165  0.99794639  0.39086374    -0.12000
C534        C  0.49903031  0.49862653  0.35798598    -0.13600
C535        C  0.49939298  0.99795884  0.14086550    -0.12000
C536        C  0.49904392  0.49858639  0.10798444    -0.13600
C537        C  0.24579896  0.75751731  0.39016014    -0.12000
C538        C  0.25256035  0.73953508  0.36032422    -0.13600
C539        C  0.24582259  0.75750513  0.14015994    -0.12000
C540        C  0.25255959  0.73955742  0.11030950    -0.13600
C541        C  0.38649578  0.75091837  0.24864678    -0.12000
C542        C  0.36193041  0.74602456  0.25130736    -0.13600
C543        C  0.11191529  0.74599288  0.25112364    -0.12000
C544        C  0.13651794  0.75090219  0.24878268    -0.13600
C545        C  0.36189755  0.74601984  0.50128098    -0.12000
C546        C  0.38647990  0.75086062  0.49863371    -0.13600
C547        C  0.11189410  0.74596602  0.50113676    -0.12000
C548        C  0.13647972  0.75092931  0.49878399    -0.13600
C549        C  0.00254883  0.73915312  0.35971372    -0.12000
C550        C  0.49579727  0.75709968  0.38956068    -0.13600
C551        C  0.99579140  0.75712179  0.13956051    -0.12000
C552        C  0.00254098  0.73913482  0.10972293    -0.13600
O553        O  0.08225816  0.70474073  0.51950701    -0.79600
O554        O  0.43935171  0.72777168  0.50830954    -0.64300
O555        O  0.02252859  0.71258335  0.99116231    -1.12100
C556        C  0.99113127  0.87236926  0.99168316     1.07300
O557        O  0.41608837  0.79198427  0.98001676    -0.77500
O558        O  0.46116210  0.78799938  0.93496177    -0.65100
Ni559      Ni  0.05343427  0.67191402  0.52149283     1.34900
C560        C  0.48866307  0.77669389  0.92567583     0.86000
O561        O  0.48692755  0.65588444  0.49158643    -0.78100
O562        O  0.03038936  0.63037474  0.52528695    -0.88300
C563        C  0.41558170  0.75714269  0.99552867     0.85600
O564        O  0.03720916  0.70825500  0.56435175    -0.66600
O565        O  0.46811171  0.86597442  0.97366330    -0.85800
C566        C  0.00969634  0.71960596  0.57359117     0.86400
C567        C  0.50731221  0.62408234  0.50732603     1.08000
H568        H  0.47202187  0.79453926  0.53331921     0.39800
O569        O  0.47588742  0.78394638  0.50810083    -1.08500
O570        O  0.01045439  0.78161604  0.94706495    -0.65100
Ni571      Ni  0.01746619  0.77681045  0.99916277     1.26300
O572        O  0.48790267  0.71483715  0.55214195    -0.65400
O573        O  0.01146153  0.84065303  0.00757606    -0.77700
C574        C  0.08279925  0.73952924  0.50394536     0.85800
O575        O  0.05906238  0.76873764  0.99091517    -0.64800
Ni576      Ni  0.44499425  0.82460183  0.97773997     1.27400
Ni577      Ni  0.48093980  0.71971404  0.50005992     1.26100
H578        H  0.02640156  0.70198019  0.96595355     0.40300
O579        O  0.08225817  0.70481921  0.76951124    -0.79600
O580        O  0.43936309  0.72785289  0.75829257    -0.64300
O581        O  0.02253475  0.71266071  0.74114398    -1.10900
C582        C  0.99113849  0.87244939  0.74166745     1.07300
O583        O  0.41608870  0.79207081  0.73001476    -0.77500
O584        O  0.46116484  0.78807390  0.68494985    -0.65100
Ni585      Ni  0.05343531  0.67199575  0.77148715     1.34900
C586        C  0.48866647  0.77675236  0.67566073     0.86000
O587        O  0.48693267  0.65596901  0.74156761    -0.78100
O588        O  0.03038861  0.63046094  0.77527761    -0.88300
C589        C  0.41558873  0.75722200  0.74552375     0.85600
O590        O  0.03720821  0.70833289  0.81434502    -0.66600
O591        O  0.46811893  0.86605454  0.72364660    -0.85800
C592        C  0.00969576  0.71967156  0.82358104     0.86400
C593        C  0.50731265  0.62416899  0.75731516     1.08000
H594        H  0.47203579  0.79462150  0.78330547     0.39800
O595        O  0.47589795  0.78403053  0.75808650    -1.08500
O596        O  0.01045961  0.78168727  0.69704161    -0.65100
Ni597      Ni  0.01747730  0.77688603  0.74914068     1.26300
O598        O  0.48790334  0.71491811  0.80212364    -0.65400
O599        O  0.01147446  0.84072947  0.75755062    -0.77700
C600        C  0.08281021  0.73959235  0.75393869     0.85800
O601        O  0.05907937  0.76879941  0.74089462    -0.64800
Ni602      Ni  0.44499945  0.82468459  0.72772763     1.27400
Ni603      Ni  0.48094782  0.71979805  0.75004278     1.26100
H604        H  0.02640907  0.70205387  0.71593500     0.40300
O605        O  0.33227295  0.70496185  0.51996387    -0.79600
O606        O  0.18932390  0.72807251  0.50887691    -0.64300
O607        O  0.27250390  0.71289485  0.99174812    -1.10900
C608        C  0.24110980  0.87272152  0.99241559     1.07300
O609        O  0.16610141  0.79221215  0.98046208    -0.77500
O610        O  0.21115504  0.78846780  0.93552963    -0.65100
Ni611      Ni  0.30340458  0.67224759  0.52212099     1.34900
C612        C  0.23866296  0.77711285  0.92626793     0.86000
O613        O  0.23693715  0.65618111  0.49222342    -0.78100
O614        O  0.28032343  0.63079858  0.52607302    -0.88300
C615        C  0.16557369  0.75736328  0.99594724     0.85600
O616        O  0.28719617  0.70873420  0.56492898    -0.66600
O617        O  0.21805326  0.86639180  0.97443355    -0.85800
C618        C  0.25969012  0.72002723  0.57419042     0.86400
C619        C  0.25728998  0.62443539  0.50806220     1.08000
H620        H  0.22200537  0.79484607  0.53391743     0.39800
O621        O  0.22586865  0.78425644  0.50870390    -1.08500
O622        O  0.26045546  0.78196503  0.94768101    -0.65100
Ni623      Ni  0.26745139  0.77711929  0.99976553     1.26300
O624        O  0.23790241  0.71517327  0.55276406    -0.65400
O625        O  0.26147016  0.84095075  0.00821474    -0.77700
C626        C  0.33279558  0.73973272  0.00435005     0.85800
O627        O  0.30903562  0.76903849  0.99148078    -0.64800
Ni628      Ni  0.19496697  0.82493603  0.97835375     1.27400
Ni629      Ni  0.23092590  0.72002198  0.50066948     1.26100
H630        H  0.27637552  0.70229271  0.96653199     0.40300
O631        O  0.33232045  0.70493819  0.76999552    -0.79600
O632        O  0.18936881  0.72800675  0.75888233    -0.64300
O633        O  0.27255715  0.71282999  0.74177592    -1.10900
C634        C  0.24115878  0.87265819  0.74242925     1.07300
O635        O  0.16614807  0.79217330  0.73051472    -0.77500
O636        O  0.21118217  0.78842536  0.68556357    -0.65100
Ni637      Ni  0.30345861  0.67220045  0.77214226     1.34900
C638        C  0.23868626  0.77706507  0.67628898     0.86000
O639        O  0.23699078  0.65611802  0.74223646    -0.78100
O640        O  0.28038480  0.63073185  0.77607660    -0.88300
C641        C  0.16562018  0.75730827  0.74597289     0.85600
O642        O  0.28723721  0.70868233  0.81495058    -0.66600
O643        O  0.21809934  0.86633027  0.72445716    -0.85800
C644        C  0.25972882  0.71997382  0.82420536     0.86400
C645        C  0.25734716  0.62437104  0.75807021     1.08000
H646        H  0.22206013  0.79477853  0.78394007     0.39800
O647        O  0.22591834  0.78419422  0.75872458    -1.08500
O648        O  0.26049104  0.78188718  0.69769578    -0.65100
Ni649      Ni  0.26749947  0.77705409  0.74978123     1.26300
O650        O  0.23794788  0.71510156  0.80277671    -0.65400
O651        O  0.26152101  0.84088638  0.75822427    -0.77700
C652        C  0.33283766  0.73970105  0.75437536     0.85800
O653        O  0.30907677  0.76897420  0.74147756    -0.64800
Ni654      Ni  0.19501380  0.82488362  0.72839584     1.27400
Ni655      Ni  0.23097515  0.71995874  0.75068368     1.26100
H656        H  0.27643340  0.70222181  0.71656221     0.40300
O657        O  0.02098539  0.92251087  0.99696389    -0.73200
O658        O  0.02839891  0.54302612  0.50557088    -0.73200
O659        O  0.02458709  0.48335644  0.55315040    -0.73300
O660        O  0.02478713  0.98225102  0.94859491    -0.73300
O661        O  0.47384079  0.51311747  0.94570056    -0.73200
O662        O  0.47364052  0.51420919  0.55024639    -0.73200
O663        O  0.47745492  0.57394027  0.50190240    -0.73200
O664        O  0.47003570  0.95341931  0.49328150    -0.73300
Ni665      Ni  0.02651442  0.98169069  0.00109368     1.25400
Ni666      Ni  0.47192049  0.51476314  0.49775299     1.25400
C667        C  0.99425152  0.91824546  0.99389215     0.89000
C668        C  0.00418993  0.57820296  0.50500297     0.88900
C669        C  0.99905496  0.49882034  0.56877977     0.89000
C670        C  0.99937143  0.99766430  0.93006612     0.89100
O671        O  0.02839962  0.54311539  0.75557100    -0.73200
O672        O  0.02098584  0.92259959  0.74696500    -0.73200
O673        O  0.02478305  0.98233662  0.69859912    -0.73300
O674        O  0.02459381  0.98343950  0.80315230    -0.73300
O675        O  0.47364610  0.51428709  0.80025154    -0.73200
O676        O  0.47383707  0.01319687  0.69570217    -0.73200
O677        O  0.47004123  0.95350170  0.74328244    -0.73200
O678        O  0.47745537  0.57402641  0.75190385    -0.73300
Ni679      Ni  0.02651025  0.98178093  0.75109672     1.25400
Ni680      Ni  0.47192438  0.51484647  0.74775677     1.25400
C681        C  0.50418986  0.57829082  0.75499955     0.89000
C682        C  0.49425343  0.91832954  0.74388824     0.88900
C683        C  0.49936672  0.99773528  0.68006936     0.89000
C684        C  0.49906064  0.49888808  0.81878348     0.89100
O685        O  0.27838769  0.54338882  0.00640036    -0.73200
O686        O  0.27096899  0.92286473  0.99779057    -0.73200
O687        O  0.27478604  0.98259509  0.94943918    -0.73300
O688        O  0.27459000  0.98369377  0.55398242    -0.73300
O689        O  0.22365154  0.51454261  0.55108761    -0.73200
O690        O  0.22383961  0.01344672  0.94652677    -0.73200
O691        O  0.22002544  0.95377046  0.49411128    -0.73200
O692        O  0.22744684  0.57428271  0.50272395    -0.73300
Ni693      Ni  0.27650080  0.98204607  0.00193111     1.25400
Ni694      Ni  0.22192431  0.51510205  0.49858731     1.25400
C695        C  0.25417835  0.57855386  0.50580613     0.89000
C696        C  0.24423424  0.91859926  0.99469597     0.88900
C697        C  0.24937470  0.99798781  0.93090202     0.89000
C698        C  0.24906087  0.99914556  0.56961550     0.89100
O699        O  0.27101700  0.92279961  0.74778855    -0.73200
O700        O  0.27844314  0.54331686  0.75640392    -0.73200
O701        O  0.27463504  0.98363285  0.80398493    -0.73300
O702        O  0.27482220  0.98253931  0.69943108    -0.73300
O703        O  0.22388284  0.51339272  0.69653690    -0.73200
O704        O  0.22369322  0.51448943  0.80108427    -0.73200
O705        O  0.22749871  0.57422370  0.75272802    -0.73200
O706        O  0.22007299  0.95371140  0.74411668    -0.73300
Ni707      Ni  0.27654834  0.98197929  0.75192896     1.25400
Ni708      Ni  0.22196933  0.51504590  0.74858987     1.25400
C709        C  0.24428246  0.91853546  0.74470193     0.89000
C710        C  0.25423199  0.57849060  0.75581124     0.88900
C711        C  0.24910745  0.49909146  0.81961646     0.89000
C712        C  0.24940541  0.99794276  0.68090266     0.89100
C713        C  0.24940798  0.99822379  0.89169927    -0.12000
C714        C  0.24907856  0.99885398  0.85881884    -0.13600
C715        C  0.24905041  0.99888222  0.60881897    -0.12000
C716        C  0.24941792  0.99820912  0.64169950    -0.13600
C717        C  0.49938836  0.99794196  0.89086375    -0.12000
C718        C  0.49903803  0.49861925  0.85798587    -0.13600
C719        C  0.49938280  0.99796979  0.64086520    -0.12000
C720        C  0.49903216  0.49859614  0.60798401    -0.13600
C721        C  0.24580720  0.75751925  0.89015649    -0.12000
C722        C  0.25257069  0.73953323  0.86032231    -0.13600
C723        C  0.24580824  0.75750802  0.64016531    -0.12000
C724        C  0.25254687  0.73955698  0.61031625    -0.13600
C725        C  0.38649544  0.75091527  0.74863190    -0.12000
C726        C  0.36193044  0.74602004  0.75129164    -0.13600
C727        C  0.11191471  0.74599735  0.75113689    -0.12000
C728        C  0.13651802  0.75090612  0.74880015    -0.13600
C729        C  0.36189743  0.74602028  0.00126990    -0.12000
C730        C  0.38648052  0.75086049  0.99862734    -0.13600
C731        C  0.11189309  0.74597590  0.00113979    -0.12000
C732        C  0.13647803  0.75093976  0.99878258    -0.13600
C733        C  0.00254529  0.73915630  0.85971551    -0.12000
C734        C  0.49579491  0.75710268  0.88956272    -0.13600
C735        C  0.99579738  0.75711897  0.63955556    -0.12000
C736        C  0.00254647  0.73913153  0.60971807    -0.13600
O737        O  0.58225612  0.20475809  0.01952065    -0.79600
O738        O  0.93935147  0.22777062  0.00830723    -0.64300
O739        O  0.52252666  0.21258156  0.49115689    -1.12100
C740        C  0.49112589  0.37236870  0.49168340     1.07300
O741        O  0.91608696  0.29197642  0.48001404    -0.77500
O742        O  0.96116157  0.28799485  0.43495924    -0.65100
Ni743      Ni  0.55343555  0.17192353  0.02150116     1.34900
C744        C  0.98866263  0.27669192  0.42567370     0.86000
O745        O  0.98693158  0.15588430  0.99159051    -0.78100
O746        O  0.53039497  0.13037704  0.02528970    -0.88300
C747        C  0.91558117  0.25713718  0.49553019     0.85600
O748        O  0.53720514  0.20826166  0.06435943    -0.66600
O749        O  0.96810749  0.36597187  0.47366233    -0.85800
C750        C  0.50969170  0.21961059  0.07359627     0.86400
C751        C  0.00731857  0.12408260  0.00732836     1.08000
H752        H  0.97202130  0.29454176  0.03332255     0.39800
O753        O  0.97588649  0.28394902  0.00810358    -1.08500
O754        O  0.51045280  0.28161717  0.44706311    -0.65100
Ni755      Ni  0.51746426  0.27680905  0.49916053     1.26300
O756        O  0.98789969  0.21484059  0.05214483    -0.65400
O757        O  0.51145772  0.34065267  0.50757529    -0.77700
C758        C  0.58279692  0.23954137  0.00395118     0.85800
O759        O  0.55906093  0.26873792  0.49091506    -0.64800
Ni760      Ni  0.94499179  0.32459669  0.47773749     1.27400
Ni761      Ni  0.98094044  0.21971556  0.00006257     1.26100
H762        H  0.52639842  0.20197998  0.46594695     0.40300
O763        O  0.58225956  0.20481727  0.26950341    -0.79600
O764        O  0.93936442  0.22784831  0.25829554    -0.64300
O765        O  0.52253444  0.21266099  0.24114249    -1.10900
C766        C  0.49113831  0.37244870  0.24167387     1.07300
O767        O  0.91608637  0.29207568  0.23003096    -0.77500
O768        O  0.96115959  0.28807580  0.18495851    -0.65100
Ni769      Ni  0.55343628  0.17199475  0.27148308     1.34900
C770        C  0.98866037  0.27675599  0.17566621     0.86000
O771        O  0.98693415  0.15596752  0.24156359    -0.78100
O772        O  0.53038919  0.13046071  0.27527536    -0.88300
C773        C  0.91558847  0.25722206  0.24553484     0.85600
O774        O  0.53721065  0.20833255  0.31434182    -0.66600
O775        O  0.96811882  0.36605381  0.22365314    -0.85800
C776        C  0.50969874  0.21966781  0.32357959     0.86400
C777        C  0.00731422  0.12416760  0.25731125     1.08000
H778        H  0.97203797  0.29461673  0.28331288     0.39800
O779        O  0.97589844  0.28402872  0.25809275    -1.08500
O780        O  0.51045445  0.28169249  0.19704473    -0.65100
Ni781      Ni  0.51747674  0.27688584  0.24914308     1.26300
O782        O  0.98790679  0.21490987  0.30212355    -0.65400
O783        O  0.51147408  0.34072864  0.25755697    -0.77700
C784        C  0.58280978  0.23959218  0.25393166     0.85800
O785        O  0.55907755  0.26880101  0.24089241    -0.64800
Ni786      Ni  0.94499823  0.32468640  0.22773830     1.27400
Ni787      Ni  0.98094839  0.21979639  0.25004362     1.26100
H788        H  0.52640782  0.20205633  0.21593313     0.40300
O789        O  0.83227322  0.20494818  0.01993705    -0.79600
O790        O  0.68931900  0.22808896  0.00887831    -0.64300
O791        O  0.77250549  0.21288851  0.49175833    -1.10900
C792        C  0.74111550  0.37271517  0.49241810     1.07300
O793        O  0.66610033  0.29221907  0.48047815    -0.77500
O794        O  0.71115171  0.28846720  0.43553917    -0.65100
Ni795      Ni  0.80340006  0.17224526  0.02210360     1.34900
C796        C  0.73865915  0.27710704  0.42627430     0.86000
O797        O  0.73692742  0.15619095  0.99221869    -0.78100
O798        O  0.78031453  0.13080547  0.02606513    -0.88300
C799        C  0.66557309  0.25736332  0.49595351     0.85600
O800        O  0.78720001  0.20873482  0.06491388    -0.66600
O801        O  0.71805715  0.36638739  0.47443947    -0.85800
C802        C  0.75969509  0.22003209  0.07418086     0.86400
C803        C  0.75727999  0.12444392  0.00805641     1.08000
H804        H  0.72200197  0.29485507  0.03390999     0.39800
O805        O  0.72586623  0.28426405  0.00869701    -1.08500
O806        O  0.76045498  0.28195220  0.44768535    -0.65100
Ni807      Ni  0.76745405  0.27711184  0.49977055     1.26300
O808        O  0.73790339  0.21518333  0.05275858    -0.65400
O809        O  0.76147602  0.34094328  0.50821576    -0.77700
C810        C  0.83279652  0.23972563  0.50436156     0.85800
O811        O  0.80903828  0.26902473  0.49148174    -0.64800
Ni812      Ni  0.69496877  0.32493627  0.47836509     1.27400
Ni813      Ni  0.73092062  0.22003139  0.00066403     1.26100
H814        H  0.77637958  0.20228305  0.46654350     0.40300
O815        O  0.83231762  0.20493922  0.27000661    -0.79600
O816        O  0.68936553  0.22801158  0.25887362    -0.64300
O817        O  0.77255634  0.21283047  0.24177805    -1.10900
C818        C  0.74115909  0.37265881  0.24242456     1.07300
O819        O  0.66614891  0.29217040  0.23049481    -0.77500
O820        O  0.71119010  0.28842161  0.18555293    -0.65100
Ni821      Ni  0.80345445  0.17220239  0.27214908     1.34900
C822        C  0.73869551  0.27706166  0.17628323     0.86000
O823        O  0.73698774  0.15612054  0.24223608    -0.78100
O824        O  0.78037945  0.13073421  0.27608019    -0.88300
C825        C  0.66561857  0.25730968  0.24595755     0.85600
O826        O  0.78722916  0.20868569  0.31495530    -0.66600
O827        O  0.71810127  0.36633017  0.22444870    -0.85800
C828        C  0.75971978  0.21997853  0.32420676     0.86400
C829        C  0.75734229  0.12437388  0.25807214     1.08000
H830        H  0.72205451  0.29478386  0.28393138     0.39800
O831        O  0.72591592  0.28419666  0.25871725    -1.08500
O832        O  0.76049796  0.28188317  0.19769449    -0.65100
Ni833      Ni  0.76749869  0.27705491  0.24978125     1.26300
O834        O  0.73793975  0.21510984  0.30277460    -0.65400
O835        O  0.76151970  0.34088757  0.25822217    -0.77700
C836        C  0.83283705  0.23970109  0.25438670     0.85800
O837        O  0.80907761  0.26897394  0.24148565    -0.64800
Ni838      Ni  0.69501523  0.32488212  0.22838185     1.27400
Ni839      Ni  0.73097286  0.21996119  0.25068017     1.26100
H840        H  0.77643486  0.20222031  0.21656496     0.40300
O841        O  0.52097704  0.42251330  0.49696557    -0.73200
O842        O  0.52840832  0.04302484  0.00557008    -0.73200
O843        O  0.52459814  0.98335243  0.05314904    -0.73300
O844        O  0.52477773  0.48225343  0.44859599    -0.73300
O845        O  0.97383479  0.01311697  0.44569878    -0.73200
O846        O  0.97365165  0.01420467  0.05024663    -0.73200
O847        O  0.97746423  0.07393767  0.00190344    -0.73200
O848        O  0.97003969  0.45342117  0.99328220    -0.73300
Ni849      Ni  0.52650470  0.48169317  0.50109499     1.25400
Ni850      Ni  0.97193024  0.01476105  0.99775300     1.25400
C851        C  0.49424377  0.41824647  0.49389343     0.89000
C852        C  0.50419877  0.07820143  0.00500365     0.88900
C853        C  0.49906642  0.99881468  0.06877920     0.89000
C854        C  0.49936212  0.49766701  0.43006689     0.89100
O855        O  0.52840205  0.04311425  0.25557066    -0.73200
O856        O  0.52098625  0.42259811  0.24697273    -0.73200
O857        O  0.52478835  0.48232856  0.19860364    -0.73300
O858        O  0.52458976  0.48344380  0.30315685    -0.73300
O859        O  0.97364482  0.01429043  0.30024774    -0.73200
O860        O  0.97384246  0.51318962  0.19570051    -0.73200
O861        O  0.97004187  0.45350057  0.24328349    -0.73200
O862        O  0.97745779  0.07402400  0.25189722    -0.73300
Ni863      Ni  0.52651085  0.48177927  0.25110162     1.25400
Ni864      Ni  0.97192758  0.01484377  0.24775267     1.25400
C865        C  0.00419203  0.07828913  0.25499554     0.89000
C866        C  0.99425385  0.41832838  0.24389352     0.88900
C867        C  0.99937345  0.49772598  0.18007074     0.89000
C868        C  0.99905798  0.99889329  0.31878276     0.89100
O869        O  0.77838460  0.04338557  0.50640225    -0.73200
O870        O  0.77097603  0.42285703  0.49779017    -0.73200
O871        O  0.77479178  0.48258994  0.44943927    -0.73300
O872        O  0.77459457  0.48369740  0.05398258    -0.73300
O873        O  0.72364185  0.01455128  0.05108453    -0.73200
O874        O  0.72384547  0.51344314  0.44653021    -0.73200
O875        O  0.72002933  0.45377324  0.99411141    -0.73200
O876        O  0.72743693  0.07429037  0.00271883    -0.73300
Ni877      Ni  0.77650888  0.48203792  0.50193160     1.25400
Ni878      Ni  0.72191608  0.01510850  0.99858375     1.25400
C879        C  0.75416816  0.07856243  0.00580163     0.89000
C880        C  0.74424100  0.41859250  0.49469721     0.88900
C881        C  0.74937967  0.49798435  0.43090361     0.89000
C882        C  0.74906554  0.49914889  0.06961577     0.89100
O883        O  0.77101815  0.42279933  0.24778748    -0.73200
O884        O  0.77843652  0.04331957  0.25640452    -0.73200
O885        O  0.77463654  0.48363054  0.30398602    -0.73300
O886        O  0.77482668  0.48253972  0.19943245    -0.73300
O887        O  0.72387451  0.01339921  0.19653582    -0.73200
O888        O  0.72368547  0.01449183  0.30108320    -0.73200
O889        O  0.72749223  0.07422785  0.25272870    -0.73200
O890        O  0.72007433  0.45371288  0.24411400    -0.73300
Ni891      Ni  0.77655119  0.48197818  0.25193026     1.25400
Ni892      Ni  0.72196156  0.01505019  0.24858874     1.25400
C893        C  0.74428332  0.41853613  0.24469901     0.89000
C894        C  0.75422587  0.07849391  0.25581258     0.88900
C895        C  0.74909972  0.99909313  0.31961528     0.89000
C896        C  0.74941039  0.49794446  0.18090326     0.89100
C897        C  0.74941080  0.49822212  0.39170047    -0.12000
C898        C  0.74907968  0.49885308  0.35881976    -0.13600
C899        C  0.74905561  0.49888579  0.10881948    -0.12000
C900        C  0.74942367  0.49821191  0.14170010    -0.13600
C901        C  0.99937915  0.49794733  0.39086474    -0.12000
C902        C  0.99903250  0.99862586  0.35798498    -0.13600
C903        C  0.99939230  0.49795828  0.14086654    -0.12000
C904        C  0.99904467  0.99858679  0.10798340    -0.13600
C905        C  0.74579881  0.25751669  0.39016065    -0.12000
C906        C  0.75256001  0.23953461  0.36032455    -0.13600
C907        C  0.74582102  0.25750692  0.14015953    -0.12000
C908        C  0.75255783  0.23955927  0.11030892    -0.13600
C909        C  0.88649568  0.25091455  0.24864600    -0.12000
C910        C  0.86193074  0.24601895  0.25130600    -0.13600
C911        C  0.61191360  0.24599761  0.25112451    -0.12000
C912        C  0.63651590  0.25090842  0.24878398    -0.13600
C913        C  0.86189894  0.24601127  0.50128014    -0.12000
C914        C  0.88648085  0.25085370  0.49863315    -0.13600
C915        C  0.61189217  0.24597332  0.50113751    -0.12000
C916        C  0.63647738  0.25093830  0.49878500    -0.13600
C917        C  0.50254804  0.23915335  0.35971402    -0.12000
C918        C  0.99579603  0.25710021  0.38956083    -0.13600
C919        C  0.49578948  0.25712279  0.13956040    -0.12000
C920        C  0.50253921  0.23913562  0.10972289    -0.13600
O921        O  0.58225765  0.20474554  0.51950800    -0.79600
O922        O  0.93935248  0.22776865  0.50830977    -0.64300
O923        O  0.52252728  0.21258448  0.99116218    -1.12100
C924        C  0.49112893  0.37237041  0.99168380     1.07300
O925        O  0.91608682  0.29198298  0.98001630    -0.77500
O926        O  0.96116014  0.28800092  0.93496166    -0.65100
Ni927      Ni  0.55343505  0.17191607  0.52149270     1.34900
C928        C  0.98866114  0.27669532  0.92567577     0.86000
O929        O  0.98692913  0.15588357  0.49158618    -0.78100
O930        O  0.53039161  0.13037440  0.52528569    -0.88300
C931        C  0.91558059  0.25714102  0.99552812     0.85600
O932        O  0.53720910  0.20825556  0.56435203    -0.66600
O933        O  0.96810893  0.36597597  0.97366473    -0.85800
C934        C  0.50969629  0.21960550  0.57359135     0.86400
C935        C  0.00731438  0.12408167  0.50732521     1.08000
H936        H  0.97202119  0.29453837  0.53331977     0.39800
O937        O  0.97588661  0.28394581  0.50810128    -1.08500
O938        O  0.51045243  0.28161752  0.94706492    -0.65100
Ni939      Ni  0.51746435  0.27681161  0.99916266     1.26300
O940        O  0.98790305  0.21483595  0.55214198    -0.65400
O941        O  0.51145939  0.34065400  0.00757617    -0.77700
C942        C  0.58279795  0.23953413  0.50394575     0.85800
O943        O  0.55906029  0.26873972  0.99091471    -0.64800
Ni944      Ni  0.94499211  0.32460207  0.97774043     1.27400
Ni945      Ni  0.98094020  0.21971320  0.50006003     1.26100
H946        H  0.52640026  0.20198133  0.96595338     0.40300
O947        O  0.58225725  0.20482236  0.76951202    -0.79600
O948        O  0.93936266  0.22785196  0.75829292    -0.64300
O949        O  0.52253409  0.21266147  0.74114389    -1.10900
C950        C  0.49113641  0.37245021  0.74166791     1.07300
O951        O  0.91608767  0.29206878  0.73001401    -0.77500
O952        O  0.96116342  0.28807468  0.68494951    -0.65100
Ni953      Ni  0.55343505  0.17199733  0.77148719     1.34900
C954        C  0.98866508  0.27675308  0.67566050     0.86000
O955        O  0.98693261  0.15596904  0.74156771    -0.78100
O956        O  0.53038905  0.13046134  0.77527690    -0.88300
C957        C  0.91558811  0.25721991  0.74552331     0.85600
O958        O  0.53720745  0.20833359  0.81434532    -0.66600
O959        O  0.96811649  0.36605555  0.72364767    -0.85800
C960        C  0.50969497  0.21967192  0.82358122     0.86400
C961        C  0.00731306  0.12416912  0.75731470     1.08000
H962        H  0.97203466  0.29462157  0.78330548     0.39800
O963        O  0.97589675  0.28403060  0.75808649    -1.08500
O964        O  0.51045828  0.28168794  0.69704141    -0.65100
Ni965      Ni  0.51747607  0.27688685  0.74914041     1.26300
O966        O  0.98790276  0.21491803  0.80212374    -0.65400
O967        O  0.51147284  0.34073018  0.75755033    -0.77700
C968        C  0.58280891  0.23959534  0.75393887     0.85800
O969        O  0.55907792  0.26880113  0.74089394    -0.64800
Ni970      Ni  0.94499775  0.32468420  0.72772774     1.27400
Ni971      Ni  0.98094720  0.21979804  0.75004289     1.26100
H972        H  0.52640842  0.20205447  0.71593488     0.40300
O973        O  0.83227263  0.20495477  0.51996211    -0.79600
O974        O  0.68932151  0.22807842  0.50887718    -0.64300
O975        O  0.77250152  0.21289479  0.99174729    -1.10900
C976        C  0.74111245  0.37272075  0.99241607     1.07300
O977        O  0.66609963  0.29221858  0.98046424    -0.77500
O978        O  0.71115395  0.28846962  0.93553050    -0.65100
Ni979      Ni  0.80340176  0.17224472  0.52212053     1.34900
C980        C  0.73866185  0.27711369  0.92626834     0.86000
O981        O  0.73693247  0.15618441  0.49222244    -0.78100
O982        O  0.78031768  0.13079971  0.52607346    -0.88300
C983        C  0.66557122  0.25736927  0.99594838     0.85600
O984        O  0.78719453  0.20873365  0.56492826    -0.66600
O985        O  0.71805551  0.36639239  0.97443384    -0.85800
C986        C  0.75968845  0.22002801  0.57419004     0.86400
C987        C  0.75728410  0.12443790  0.50806180     1.08000
H988        H  0.72200650  0.29484761  0.53391818     0.39800
O989        O  0.72586933  0.28425805  0.50870465    -1.08500
O990        O  0.76045458  0.28196560  0.94768114    -0.65100
Ni991      Ni  0.76745098  0.27711849  0.99976547     1.26300
O992        O  0.73790048  0.21517455  0.55276391    -0.65400
O993        O  0.76147188  0.34094927  0.00821552    -0.77700
C994        C  0.83279502  0.23972812  0.00434822     0.85800
O995        O  0.80903535  0.26903535  0.99148000    -0.64800
Ni996      Ni  0.69496706  0.32493937  0.97835472     1.27400
Ni997      Ni  0.73092387  0.22002451  0.50066940     1.26100
H998        H  0.77637279  0.20229283  0.96653108     0.40300
O999        O  0.83231955  0.20493384  0.76999422    -0.79600
O1000       O  0.68936659  0.22801128  0.75888335    -0.64300
O1001       O  0.77255536  0.21282934  0.74177545    -1.10900
C1002       C  0.74116199  0.37265718  0.74242972     1.07300
O1003       O  0.66614707  0.29217907  0.73051689    -0.77500
O1004       O  0.71118143  0.28842768  0.68556447    -0.65100
Ni1005     Ni  0.80345612  0.17219863  0.77214164     1.34900
C1006       C  0.73868545  0.27706605  0.67628918     0.86000
O1007       O  0.73698661  0.15612070  0.74223634    -0.78100
O1008       O  0.78038050  0.13073240  0.77607635    -0.88300
C1009       C  0.66561836  0.25731399  0.74597444     0.85600
O1010       O  0.78723571  0.20868155  0.81495017    -0.66600
O1011       O  0.71810188  0.36633088  0.72445795    -0.85800
C1012       C  0.75972736  0.21997402  0.82420540     0.86400
C1013       C  0.75734240  0.12437292  0.75806995     1.08000
H1014       H  0.72206077  0.29477976  0.78394080     0.39800
O1015       O  0.72591837  0.28419558  0.75872529    -1.08500
O1016       O  0.76049080  0.28188669  0.69769564    -0.65100
Ni1017     Ni  0.76749973  0.27705274  0.74978101     1.26300
O1018       O  0.73794611  0.21510258  0.80277694    -0.65400
O1019       O  0.76152351  0.34088441  0.75822455    -0.77700
C1020       C  0.83283757  0.23969631  0.75437403     0.85800
O1021       O  0.80907709  0.26897025  0.74147639    -0.64800
Ni1022     Ni  0.69501445  0.32488669  0.72839718     1.27400
Ni1023     Ni  0.73097309  0.21996076  0.75068399     1.26100
H1024       H  0.77643115  0.20222105  0.71656167     0.40300
O1025       O  0.52098365  0.42251105  0.99696469    -0.73200
O1026       O  0.52840146  0.04302543  0.50556980    -0.73200
O1027       O  0.52458967  0.98335593  0.55314952    -0.73300
O1028       O  0.52478614  0.48225068  0.94859592    -0.73300
O1029       O  0.97384171  0.01311673  0.94569946    -0.73200
O1030       O  0.97364317  0.01420840  0.55024540    -0.73200
O1031       O  0.97745742  0.07393932  0.50190136    -0.73200
O1032       O  0.97003289  0.45342037  0.49328228    -0.73300
Ni1033     Ni  0.52651345  0.48169033  0.00109465     1.25400
Ni1034     Ni  0.97192314  0.01476216  0.49775203     1.25400
C1035       C  0.49424959  0.41824631  0.99389286     0.89000
C1036       C  0.50419240  0.07820216  0.50500196     0.88900
C1037       C  0.49905751  0.99881982  0.56877883     0.89000
C1038       C  0.49937049  0.49766439  0.93006717     0.89100
O1039       O  0.52840054  0.04311566  0.75557021    -0.73200
O1040       O  0.52098400  0.42259991  0.74696559    -0.73200
O1041       O  0.52478146  0.48233668  0.69859991    -0.73300
O1042       O  0.52459273  0.48343918  0.80315313    -0.73300
O1043       O  0.97364714  0.01428665  0.80025022    -0.73200
O1044       O  0.97383554  0.51319772  0.69570350    -0.73200
O1045       O  0.97003944  0.45350263  0.74328357    -0.73200
O1046       O  0.97745624  0.07402602  0.75190254    -0.73300
Ni1047     Ni  0.52650891  0.48178087  0.75109749     1.25400
Ni1048     Ni  0.97192567  0.01484580  0.74775544     1.25400
C1049       C  0.00419061  0.07829080  0.75499872     0.89000
C1050       C  0.99425149  0.41833025  0.74388891     0.88900
C1051       C  0.99936504  0.49773569  0.68007041     0.89000
C1052       C  0.99906159  0.99888814  0.81878240     0.89100
O1053       O  0.77838187  0.04339173  0.00640029    -0.73200
O1054       O  0.77097323  0.42286225  0.99779087    -0.73200
O1055       O  0.77479041  0.48259265  0.94943942    -0.73300
O1056       O  0.77459797  0.48369040  0.55398301    -0.73300
O1057       O  0.72364362  0.01454631  0.55108595    -0.73200
O1058       O  0.72384406  0.51344584  0.94652827    -0.73200
O1059       O  0.72003214  0.45376816  0.49411262    -0.73200
O1060       O  0.72743978  0.07428598  0.50272202    -0.73300
Ni1061     Ni  0.77650600  0.48204323  0.00193134     1.25400
Ni1062     Ni  0.72191724  0.01510488  0.49858560     1.25400
C1063       C  0.75417143  0.07855687  0.50580521     0.89000
C1064       C  0.74423814  0.41859779  0.99469663     0.88900
C1065       C  0.74937886  0.49798643  0.93090288     0.89000
C1066       C  0.74906909  0.49914199  0.56961665     0.89100
O1067       O  0.77102166  0.42279730  0.74779012    -0.73200
O1068       O  0.77843760  0.04331904  0.75640228    -0.73200
O1069       O  0.77463930  0.48363113  0.80398646    -0.73300
O1070       O  0.77482899  0.48253617  0.69943293    -0.73300
O1071       O  0.72387597  0.01339524  0.69653665    -0.73200
O1072       O  0.72368891  0.01449066  0.80108403    -0.73200
O1073       O  0.72749317  0.07422595  0.75272771    -0.73200
O1074       O  0.72007776  0.45371025  0.74411670    -0.73300
Ni1075     Ni  0.77655367  0.48197689  0.75193069     1.25400
Ni1076     Ni  0.72196391  0.01504769  0.74858971     1.25400
C1077       C  0.74428685  0.41853386  0.74470262     0.89000
C1078       C  0.75422653  0.07849280  0.75581044     0.88900
C1079       C  0.74910345  0.99909271  0.81961559     0.89000
C1080       C  0.74941266  0.49793977  0.68090373     0.89100
C1081       C  0.74941160  0.49822299  0.89170012    -0.12000
C1082       C  0.74908206  0.49885323  0.85881969    -0.13600
C1083       C  0.74905910  0.49887866  0.60882015    -0.12000
C1084       C  0.74942619  0.49820574  0.64170065    -0.13600
C1085       C  0.99938752  0.49794184  0.89086482    -0.12000
C1086       C  0.99903881  0.99861949  0.85798479    -0.13600
C1087       C  0.99938078  0.49797009  0.64086620    -0.12000
C1088       C  0.99903464  0.99859582  0.60798304    -0.13600
C1089       C  0.74580591  0.25751961  0.89015682    -0.12000
C1090       C  0.75256955  0.23953349  0.86032259    -0.13600
C1091       C  0.74580676  0.25750925  0.64016513    -0.12000
C1092       C  0.75254543  0.23955825  0.61031597    -0.13600
C1093       C  0.88649522  0.25091137  0.74863082    -0.12000
C1094       C  0.86193062  0.24601463  0.75129035    -0.13600
C1095       C  0.61191303  0.24600199  0.75113753    -0.12000
C1096       C  0.63651592  0.25091240  0.74880122    -0.13600
C1097       C  0.86189714  0.24601510  0.00126824    -0.12000
C1098       C  0.88647983  0.25085692  0.99862602    -0.13600
C1099       C  0.61189079  0.24598074  0.00114036    -0.12000
C1100       C  0.63647530  0.25094624  0.99878338    -0.13600
C1101       C  0.50254412  0.23915713  0.85971558    -0.12000
C1102       C  0.99579318  0.25710389  0.88956264    -0.13600
C1103       C  0.49579625  0.25711917  0.63955544    -0.12000
C1104       C  0.50254589  0.23913117  0.60971820    -0.13600
O1105       O  0.58225767  0.70475473  0.01951987    -0.79600
O1106       O  0.93935239  0.72777132  0.00830726    -0.64300
O1107       O  0.52252663  0.71258054  0.49115697    -1.12100
C1108       C  0.49112859  0.87236771  0.49168278     1.07300
O1109       O  0.91608760  0.79197990  0.48001370    -0.77500
O1110       O  0.96116296  0.78799478  0.43495897    -0.65100
Ni1111     Ni  0.55343648  0.67192168  0.02150119     1.34900
C1112       C  0.98866408  0.77669117  0.42567356     0.86000
O1113       O  0.98693226  0.65588398  0.99159082    -0.78100
O1114       O  0.53039518  0.63037648  0.02529066    -0.88300
C1115       C  0.91558086  0.75714146  0.49553016     0.85600
O1116       O  0.53720658  0.70826068  0.06435922    -0.66600
O1117       O  0.96811045  0.86597117  0.47366096    -0.85800
C1118       C  0.50969316  0.71960999  0.07359624     0.86400
C1119       C  0.00731888  0.62408218  0.00732907     1.08000
H1120       H  0.97202290  0.79454165  0.03332232     0.39800
O1121       O  0.97588816  0.78394863  0.00810345    -1.08500
O1122       O  0.51045448  0.78161571  0.44706306    -0.65100
Ni1123     Ni  0.51746547  0.77680785  0.49916056     1.26300
O1124       O  0.98790093  0.71484046  0.05214495    -0.65400
O1125       O  0.51145988  0.84065148  0.50757521    -0.77700
C1126       C  0.58279884  0.73953813  0.00395094     0.85800
O1127       O  0.55906260  0.76873482  0.49091561    -0.64800
Ni1128     Ni  0.94499350  0.82459798  0.47773668     1.27400
Ni1129     Ni  0.98094158  0.71971524  0.00006265     1.26100
H1130       H  0.52639837  0.70197866  0.46594720     0.40300
O1131       O  0.58226048  0.70481416  0.26950258    -0.79600
O1132       O  0.93936476  0.72784925  0.25829506    -0.64300
O1133       O  0.52253516  0.71266018  0.24114239    -1.10900
C1134       C  0.49114033  0.87244779  0.24167330     1.07300
O1135       O  0.91608743  0.79207713  0.23003073    -0.77500
O1136       O  0.96116131  0.78807453  0.18495836    -0.65100
Ni1137     Ni  0.55343646  0.67199336  0.27148313     1.34900
C1138       C  0.98866212  0.77675490  0.17566625     0.86000
O1139       O  0.98693427  0.65596737  0.24156337    -0.78100
O1140       O  0.53038852  0.63046077  0.27527646    -0.88300
C1141       C  0.91558903  0.75722395  0.24553478     0.85600
O1142       O  0.53721123  0.70833230  0.31434148    -0.66600
O1143       O  0.96812121  0.86605261  0.22365173    -0.85800
C1144       C  0.50969932  0.71966779  0.32357927     0.86400
C1145       C  0.00731382  0.62416758  0.25731180     1.08000
H1146       H  0.97203876  0.79461666  0.28331238     0.39800
O1147       O  0.97589947  0.78402852  0.25809238    -1.08500
O1148       O  0.51045606  0.78169182  0.19704489    -0.65100
Ni1149     Ni  0.51747799  0.77688498  0.24914325     1.26300
O1150       O  0.98790728  0.71490997  0.30212331    -0.65400
O1151       O  0.51147564  0.84072791  0.25755722    -0.77700
C1152       C  0.58281109  0.73958921  0.25393142     0.85800
O1153       O  0.55907903  0.76879941  0.24089318    -0.64800
Ni1154     Ni  0.94499990  0.82468644  0.22773751     1.27400
Ni1155     Ni  0.98094894  0.71979629  0.25004328     1.26100
H1156       H  0.52640864  0.70205551  0.21593288     0.40300
O1157       O  0.83227445  0.70495307  0.01993971    -0.79600
O1158       O  0.68932180  0.72808447  0.00887815    -0.64300
O1159       O  0.77250703  0.71288961  0.49175872    -1.10900
C1160       C  0.74111036  0.87271719  0.49241761     1.07300
O1161       O  0.66610116  0.79221084  0.48047552    -0.77500
O1162       O  0.71115143  0.78846547  0.43553803    -0.65100
Ni1163     Ni  0.80340329  0.67224669  0.02210460     1.34900
C1164       C  0.73865886  0.77710706  0.42627366     0.86000
O1165       O  0.73693184  0.65618811  0.99221989    -0.78100
O1166       O  0.78032009  0.63080353  0.02606462    -0.88300
C1167       C  0.66557501  0.75735543  0.49595210     0.85600
O1168       O  0.78720217  0.70873407  0.06491514    -0.66600
O1169       O  0.71805240  0.86638774  0.47443938    -0.85800
C1170       C  0.75969717  0.72003076  0.07418156     0.86400
C1171       C  0.75728538  0.62444141  0.00805683     1.08000
H1172       H  0.72200240  0.79485362  0.03390951     0.39800
O1173       O  0.72586694  0.78426237  0.00869652    -1.08500
O1174       O  0.76045422  0.78195311  0.44768509    -0.65100
Ni1175     Ni  0.76745290  0.77711391  0.49977038     1.26300
O1176       O  0.73790568  0.71518213  0.05275891    -0.65400
O1177       O  0.76147203  0.84094621  0.50821492    -0.77700
C1178       C  0.83279564  0.73973286  0.50436268     0.85800
O1179       O  0.80903682  0.76903031  0.49148222    -0.64800
Ni1180     Ni  0.69496698  0.82493251  0.47836392     1.27400
Ni1181     Ni  0.73092324  0.72002906  0.00066433     1.26100
H1182       H  0.77638138  0.70228420  0.46654380     0.40300
O1183       O  0.83231847  0.70494409  0.27000874    -0.79600
O1184       O  0.68936772  0.72800676  0.25887221    -0.64300
O1185       O  0.77255823  0.71283111  0.24177879    -1.10900
C1186       C  0.74115579  0.87265977  0.24242404     1.07300
O1187       O  0.66614985  0.79216475  0.23049277    -0.77500
O1188       O  0.71119081  0.78841892  0.18555216    -0.65100
Ni1189     Ni  0.80345693  0.67220455  0.27215032     1.34900
C1190       C  0.73869632  0.77706035  0.17628321     0.86000
O1191       O  0.73699203  0.65611782  0.24223619    -0.78100
O1192       O  0.78038375  0.63073387  0.27608077    -0.88300
C1193       C  0.66562034  0.75730393  0.24595585     0.85600
O1194       O  0.78723029  0.70868701  0.31495610    -0.66600
O1195       O  0.71809880  0.86632929  0.22444765    -0.85800
C1196       C  0.75972081  0.71997866  0.32420683     0.86400
C1197       C  0.75734715  0.62437207  0.25807253     1.08000
H1198       H  0.72205382  0.79478220  0.28393035     0.39800
O1199       O  0.72591582  0.78419513  0.25871648    -1.08500
O1200       O  0.76049813  0.78188363  0.19769479    -0.65100
Ni1201     Ni  0.76749833  0.77705627  0.24978164     1.26300
O1202       O  0.73794133  0.71510859  0.30277433    -0.65400
O1203       O  0.76151699  0.84088962  0.25822214    -0.77700
C1204       C  0.83283704  0.73970614  0.25438850     0.85800
O1205       O  0.80907716  0.76897800  0.24148713    -0.64800
Ni1206     Ni  0.69501455  0.82487898  0.22838047     1.27400
Ni1207     Ni  0.73097496  0.71995900  0.25067978     1.26100
H1208       H  0.77643742  0.70222100  0.21656588     0.40300
O1209       O  0.52097986  0.92251234  0.49696488    -0.73200
O1210       O  0.52840803  0.54302424  0.00557112    -0.73200
O1211       O  0.52459732  0.48335188  0.05315000    -0.73300
O1212       O  0.52478027  0.98225250  0.44859501    -0.73300
O1213       O  0.97383220  0.51311791  0.44569976    -0.73200
O1214       O  0.97365087  0.51420525  0.05024776    -0.73200
O1215       O  0.97746396  0.57393810  0.00190470    -0.73200
O1216       O  0.97004134  0.95341993  0.99328131    -0.73300
Ni1217     Ni  0.52650734  0.98169241  0.50109407     1.25400
Ni1218     Ni  0.97192935  0.51476185  0.99775412     1.25400
C1219       C  0.49424661  0.91824542  0.49389282     0.89000
C1220       C  0.50419870  0.57820124  0.00500472     0.88900
C1221       C  0.49906564  0.49881458  0.06878025     0.89000
C1222       C  0.49936465  0.99766602  0.43006589     0.89100
O1223       O  0.52840114  0.54311412  0.25557202    -0.73200
O1224       O  0.52098800  0.92259772  0.24697164    -0.73200
O1225       O  0.52478923  0.98232880  0.19860238    -0.73300
O1226       O  0.52459150  0.98344358  0.30315562    -0.73300
O1227       O  0.97364321  0.51429134  0.30024851    -0.73200
O1228       O  0.97384327  0.01318927  0.19569964    -0.73200
O1229       O  0.97004347  0.95349959  0.24328270    -0.73200
O1230       O  0.97745698  0.57402453  0.25189789    -0.73300
Ni1231     Ni  0.52651217  0.98177922  0.25110034     1.25400
Ni1232     Ni  0.97192639  0.51484450  0.24775345     1.25400
C1233       C  0.00419132  0.57828926  0.25499646     0.89000
C1234       C  0.99425562  0.91832760  0.24389276     0.88900
C1235       C  0.99937420  0.99772615  0.18006970     0.89000
C1236       C  0.99905619  0.49889384  0.31878377     0.89100
O1237       O  0.77839162  0.54338272  0.50640251    -0.73200
O1238       O  0.77096942  0.92286031  0.49778946    -0.73200
O1239       O  0.77478549  0.98259278  0.44943886    -0.73300
O1240       O  0.77458833  0.98370054  0.05398216    -0.73300
O1241       O  0.72364813  0.51454882  0.05108614    -0.73200
O1242       O  0.72383912  0.01344502  0.44652856    -0.73200
O1243       O  0.72002500  0.95377412  0.99411011    -0.73200
O1244       O  0.72744271  0.57428801  0.00272065    -0.73300
Ni1245     Ni  0.77650182  0.98204108  0.50193114     1.25400
Ni1246     Ni  0.72192136  0.51510682  0.99858537     1.25400
C1247       C  0.75417397  0.57855973  0.00580244     0.89000
C1248       C  0.74423463  0.91859516  0.49469631     0.88900
C1249       C  0.74937361  0.99798641  0.43090260     0.89000
C1250       C  0.74905901  0.99915169  0.06961472     0.89100
O1251       O  0.77101336  0.92280167  0.24778629    -0.73200
O1252       O  0.77844215  0.54331740  0.25640568    -0.73200
O1253       O  0.77463144  0.98363260  0.30398489    -0.73300
O1254       O  0.77482057  0.98254246  0.19943109    -0.73300
O1255       O  0.72388067  0.51339724  0.19653653    -0.73200
O1256       O  0.72369060  0.51449018  0.30108391    -0.73200
O1257       O  0.72749786  0.57422563  0.25272947    -0.73200
O1258       O  0.72006944  0.95371402  0.24411347    -0.73300
Ni1259     Ni  0.77654574  0.98198058  0.25192901     1.25400
Ni1260     Ni  0.72196706  0.51504842  0.24858941     1.25400
C1261       C  0.74427880  0.91853772  0.24469822     0.89000
C1262       C  0.75423143  0.57849174  0.25581341     0.88900
C1263       C  0.74910475  0.49909143  0.31961621     0.89000
C1264       C  0.74940406  0.99794683  0.18090220     0.89100
C1265       C  0.74940539  0.99822361  0.39169950    -0.12000
C1266       C  0.74907469  0.99885445  0.35881883    -0.13600
C1267       C  0.74904860  0.99888853  0.10881836    -0.12000
C1268       C  0.74941689  0.99821441  0.14169898    -0.13600
C1269       C  0.99938167  0.99794639  0.39086374    -0.12000
C1270       C  0.99903036  0.49862653  0.35798599    -0.13600
C1271       C  0.99939297  0.99795884  0.14086551    -0.12000
C1272       C  0.99904391  0.49858639  0.10798444    -0.13600
C1273       C  0.74579899  0.75751731  0.39016014    -0.12000
C1274       C  0.75256038  0.73953508  0.36032422    -0.13600
C1275       C  0.74582262  0.75750514  0.14015995    -0.12000
C1276       C  0.75255962  0.73955742  0.11030951    -0.13600
C1277       C  0.88649581  0.75091837  0.24864678    -0.12000
C1278       C  0.86193044  0.74602456  0.25130736    -0.13600
C1279       C  0.61191529  0.74599288  0.25112364    -0.12000
C1280       C  0.63651796  0.75090216  0.24878269    -0.13600
C1281       C  0.86189754  0.74601986  0.50128098    -0.12000
C1282       C  0.88647988  0.75086062  0.49863371    -0.13600
C1283       C  0.61189412  0.74596596  0.50113679    -0.12000
C1284       C  0.63647974  0.75092930  0.49878400    -0.13600
C1285       C  0.50254885  0.73915313  0.35971372    -0.12000
C1286       C  0.99579728  0.75709968  0.38956068    -0.13600
C1287       C  0.49579139  0.75712179  0.13956051    -0.12000
C1288       C  0.50254099  0.73913482  0.10972294    -0.13600
O1289       O  0.58225809  0.70474073  0.51950700    -0.79600
O1290       O  0.93935170  0.72777168  0.50830953    -0.64300
O1291       O  0.52252860  0.71258335  0.99116230    -1.12100
C1292       C  0.49113124  0.87236926  0.99168314     1.07300
O1293       O  0.91608839  0.79198427  0.98001676    -0.77500
O1294       O  0.96116211  0.78799939  0.93496178    -0.65100
Ni1295     Ni  0.55343420  0.67191403  0.52149284     1.34900
C1296       C  0.98866309  0.77669388  0.92567587     0.86000
O1297       O  0.98692756  0.65588445  0.49158643    -0.78100
O1298       O  0.53038932  0.63037473  0.52528696    -0.88300
C1299       C  0.91558170  0.75714269  0.99552867     0.85600
O1300       O  0.53720912  0.70825501  0.56435177    -0.66600
O1301       O  0.96811174  0.86597440  0.97366331    -0.85800
C1302       C  0.50969630  0.71960596  0.57359117     0.86400
C1303       C  0.00731223  0.62408235  0.50732604     1.08000
H1304       H  0.97202190  0.79453924  0.53331919     0.39800
O1305       O  0.97588742  0.78394637  0.50810083    -1.08500
O1306       O  0.51045439  0.78161604  0.94706490    -0.65100
Ni1307     Ni  0.51746618  0.77681046  0.99916275     1.26300
O1308       O  0.98790269  0.71483716  0.55214197    -0.65400
O1309       O  0.51146147  0.84065303  0.00757607    -0.77700
C1310       C  0.58279923  0.73952922  0.50394536     0.85800
O1311       O  0.55906239  0.76873766  0.99091518    -0.64800
Ni1312     Ni  0.94499427  0.82460183  0.97773998     1.27400
Ni1313     Ni  0.98093981  0.71971404  0.50005993     1.26100
H1314       H  0.52640159  0.70198020  0.96595354     0.40300
O1315       O  0.58225819  0.70481919  0.76951125    -0.79600
O1316       O  0.93936305  0.72785289  0.75829259    -0.64300
O1317       O  0.52253480  0.71266071  0.74114398    -1.10900
C1318       C  0.49113845  0.87244940  0.74166746     1.07300
O1319       O  0.91608869  0.79207082  0.73001477    -0.77500
O1320       O  0.96116480  0.78807387  0.68494982    -0.65100
Ni1321     Ni  0.55343532  0.67199574  0.77148717     1.34900
C1322       C  0.98866643  0.77675236  0.67566072     0.86000
O1323       O  0.98693266  0.65596900  0.74156765    -0.78100
O1324       O  0.53038857  0.63046098  0.77527764    -0.88300
C1325       C  0.91558872  0.75722201  0.74552376     0.85600
O1326       O  0.53720819  0.70833290  0.81434502    -0.66600
O1327       O  0.96811896  0.86605454  0.72364658    -0.85800
C1328       C  0.50969575  0.71967155  0.82358104     0.86400
C1329       C  0.00731267  0.62416898  0.75731517     1.08000
H1330       H  0.97203577  0.79462152  0.78330547     0.39800
O1331       O  0.97589791  0.78403053  0.75808650    -1.08500
O1332       O  0.51045966  0.78168725  0.69704160    -0.65100
Ni1333     Ni  0.51747734  0.77688604  0.74914068     1.26300
O1334       O  0.98790335  0.71491812  0.80212365    -0.65400
O1335       O  0.51147446  0.84072948  0.75755060    -0.77700
C1336       C  0.58281024  0.73959234  0.75393869     0.85800
O1337       O  0.55907941  0.76879941  0.74089463    -0.64800
Ni1338     Ni  0.94499945  0.82468460  0.72772762     1.27400
Ni1339     Ni  0.98094778  0.71979805  0.75004279     1.26100
H1340       H  0.52640913  0.70205386  0.71593501     0.40300
O1341       O  0.83227296  0.70496185  0.51996387    -0.79600
O1342       O  0.68932392  0.72807253  0.50887692    -0.64300
O1343       O  0.77250389  0.71289485  0.99174810    -1.10900
C1344       C  0.74110983  0.87272151  0.99241558     1.07300
O1345       O  0.66610138  0.79221219  0.98046210    -0.77500
O1346       O  0.71115497  0.78846778  0.93552960    -0.65100
Ni1347     Ni  0.80340459  0.67224757  0.52212099     1.34900
C1348       C  0.73866289  0.77711284  0.92626792     0.86000
O1349       O  0.73693709  0.65618114  0.49222346    -0.78100
O1350       O  0.78032342  0.63079855  0.52607297    -0.88300
C1351       C  0.66557369  0.75736328  0.99594724     0.85600
O1352       O  0.78719620  0.70873419  0.56492897    -0.66600
O1353       O  0.71805329  0.86639178  0.97443353    -0.85800
C1354       C  0.75969015  0.72002723  0.57419043     0.86400
C1355       C  0.75728991  0.62443540  0.50806221     1.08000
H1356       H  0.72200541  0.79484605  0.53391743     0.39800
O1357       O  0.72586867  0.78425643  0.50870389    -1.08500
O1358       O  0.76045537  0.78196505  0.94768102    -0.65100
Ni1359     Ni  0.76745137  0.77711929  0.99976552     1.26300
O1360       O  0.73790244  0.71517327  0.55276407    -0.65400
O1361       O  0.76147019  0.84095074  0.00821474    -0.77700
C1362       C  0.83279554  0.73973272  0.00435004     0.85800
O1363       O  0.80903558  0.76903847  0.99148076    -0.64800
Ni1364     Ni  0.69496696  0.82493603  0.97835375     1.27400
Ni1365     Ni  0.73092592  0.72002198  0.50066948     1.26100
H1366       H  0.77637555  0.70229270  0.96653195     0.40300
O1367       O  0.83232047  0.70493820  0.76999552    -0.79600
O1368       O  0.68936882  0.72800676  0.75888231    -0.64300
O1369       O  0.77255718  0.71282999  0.74177593    -1.10900
C1370       C  0.74115878  0.87265817  0.74242925     1.07300
O1371       O  0.66614804  0.79217335  0.73051474    -0.77500
O1372       O  0.71118211  0.78842534  0.68556357    -0.65100
Ni1373     Ni  0.80345863  0.67220045  0.77214226     1.34900
C1374       C  0.73868621  0.77706506  0.67628898     0.86000
O1375       O  0.73699080  0.65611802  0.74223645    -0.78100
O1376       O  0.78038484  0.63073185  0.77607659    -0.88300
C1377       C  0.66562017  0.75730828  0.74597289     0.85600
O1378       O  0.78723719  0.70868234  0.81495056    -0.66600
O1379       O  0.71809936  0.86633023  0.72445715    -0.85800
C1380       C  0.75972880  0.71997381  0.82420536     0.86400
C1381       C  0.75734719  0.62437104  0.75807021     1.08000
H1382       H  0.72206016  0.79477852  0.78394007     0.39800
O1383       O  0.72591835  0.78419422  0.75872458    -1.08500
O1384       O  0.76049098  0.78188719  0.69769577    -0.65100
Ni1385     Ni  0.76749949  0.77705409  0.74978123     1.26300
O1386       O  0.73794786  0.71510156  0.80277673    -0.65400
O1387       O  0.76152103  0.84088639  0.75822427    -0.77700
C1388       C  0.83283768  0.73970105  0.75437536     0.85800
O1389       O  0.80907679  0.76897420  0.74147755    -0.64800
Ni1390     Ni  0.69501379  0.82488362  0.72839585     1.27400
Ni1391     Ni  0.73097517  0.71995874  0.75068368     1.26100
H1392       H  0.77643343  0.70222181  0.71656222     0.40300
O1393       O  0.52098538  0.92251085  0.99696389    -0.73200
O1394       O  0.52839892  0.54302611  0.50557088    -0.73200
O1395       O  0.52458702  0.48335643  0.55315040    -0.73300
O1396       O  0.52478709  0.98225102  0.94859492    -0.73300
O1397       O  0.97384085  0.51311744  0.94570056    -0.73200
O1398       O  0.97364059  0.51420917  0.55024640    -0.73200
O1399       O  0.97745491  0.57394027  0.50190239    -0.73200
O1400       O  0.97003576  0.95341930  0.49328150    -0.73300
Ni1401     Ni  0.52651438  0.98169069  0.00109368     1.25400
Ni1402     Ni  0.97192051  0.51476312  0.49775299     1.25400
C1403       C  0.49425152  0.91824544  0.99389214     0.89000
C1404       C  0.50418993  0.57820295  0.50500296     0.88900
C1405       C  0.49905489  0.49882035  0.56877977     0.89000
C1406       C  0.49937141  0.99766430  0.93006611     0.89100
O1407       O  0.52839962  0.54311541  0.75557100    -0.73200
O1408       O  0.52098578  0.92259962  0.74696501    -0.73200
O1409       O  0.52478304  0.98233663  0.69859912    -0.73300
O1410       O  0.52459383  0.98343950  0.80315228    -0.73300
O1411       O  0.97364611  0.51428710  0.80025155    -0.73200
O1412       O  0.97383708  0.01319689  0.69570216    -0.73200
O1413       O  0.97004130  0.95350168  0.74328244    -0.73200
O1414       O  0.97745538  0.57402642  0.75190385    -0.73300
Ni1415     Ni  0.52651024  0.98178093  0.75109671     1.25400
Ni1416     Ni  0.97192437  0.51484649  0.74775677     1.25400
C1417       C  0.00418987  0.57829081  0.75499957     0.89000
C1418       C  0.99425349  0.91832952  0.74388824     0.88900
C1419       C  0.99936673  0.99773528  0.68006936     0.89000
C1420       C  0.99906064  0.49888808  0.81878348     0.89100
O1421       O  0.77838764  0.54338882  0.00640037    -0.73200
O1422       O  0.77096900  0.92286474  0.99779059    -0.73200
O1423       O  0.77478601  0.98259506  0.94943919    -0.73300
O1424       O  0.77458999  0.98369378  0.55398242    -0.73300
O1425       O  0.72365157  0.51454260  0.55108762    -0.73200
O1426       O  0.72383956  0.01344675  0.94652675    -0.73200
O1427       O  0.72002547  0.95377046  0.49411127    -0.73200
O1428       O  0.72744673  0.57428275  0.50272396    -0.73300
Ni1429     Ni  0.77650078  0.98204608  0.00193111     1.25400
Ni1430     Ni  0.72192430  0.51510204  0.49858731     1.25400
C1431       C  0.75417823  0.57855390  0.50580614     0.89000
C1432       C  0.74423426  0.91859925  0.99469597     0.88900
C1433       C  0.74937466  0.99798782  0.93090202     0.89000
C1434       C  0.74906086  0.99914554  0.56961550     0.89100
O1435       O  0.77101694  0.92279962  0.74778856    -0.73200
O1436       O  0.77844317  0.54331685  0.75640392    -0.73200
O1437       O  0.77463503  0.98363284  0.80398492    -0.73300
O1438       O  0.77482213  0.98253926  0.69943110    -0.73300
O1439       O  0.72388287  0.51339272  0.69653690    -0.73200
O1440       O  0.72369322  0.51448944  0.80108426    -0.73200
O1441       O  0.72749874  0.57422370  0.75272802    -0.73200
O1442       O  0.72007294  0.95371139  0.74411668    -0.73300
Ni1443     Ni  0.77654826  0.98197929  0.75192896     1.25400
Ni1444     Ni  0.72196936  0.51504591  0.74858987     1.25400
C1445       C  0.74428243  0.91853545  0.74470194     0.89000
C1446       C  0.75423202  0.57849060  0.75581124     0.88900
C1447       C  0.74910744  0.49909144  0.81961646     0.89000
C1448       C  0.74940535  0.99794277  0.68090266     0.89100
C1449       C  0.74940799  0.99822380  0.89169928    -0.12000
C1450       C  0.74907860  0.99885399  0.85881885    -0.13600
C1451       C  0.74905040  0.99888221  0.60881897    -0.12000
C1452       C  0.74941792  0.99820914  0.64169951    -0.13600
C1453       C  0.99938834  0.99794195  0.89086375    -0.12000
C1454       C  0.99903805  0.49861925  0.85798587    -0.13600
C1455       C  0.99938283  0.99796979  0.64086521    -0.12000
C1456       C  0.99903222  0.49859613  0.60798401    -0.13600
C1457       C  0.74580718  0.75751926  0.89015649    -0.12000
C1458       C  0.75257070  0.73953324  0.86032232    -0.13600
C1459       C  0.74580821  0.75750802  0.64016531    -0.12000
C1460       C  0.75254690  0.73955699  0.61031626    -0.13600
C1461       C  0.88649543  0.75091529  0.74863189    -0.12000
C1462       C  0.86193045  0.74602004  0.75129164    -0.13600
C1463       C  0.61191473  0.74599734  0.75113690    -0.12000
C1464       C  0.63651804  0.75090609  0.74880017    -0.13600
C1465       C  0.86189740  0.74602031  0.00126988    -0.12000
C1466       C  0.88648050  0.75086050  0.99862734    -0.13600
C1467       C  0.61189311  0.74597589  0.00113980    -0.12000
C1468       C  0.63647805  0.75093972  0.99878260    -0.13600
C1469       C  0.50254526  0.73915629  0.85971549    -0.12000
C1470       C  0.99579496  0.75710269  0.88956275    -0.13600
C1471       C  0.49579736  0.75711896  0.63955556    -0.12000
C1472       C  0.50254640  0.73913152  0.60971806    -0.13600
loop_ 
_geom_bond_atom_site_label_1 
_geom_bond_atom_site_label_2 
_geom_bond_distance 
_geom_bond_site_symmetry_2 
_ccdc_geom_bond_type 
O1           Ni7   1.928       .  S
O1           C22   1.269       .  A
O2          Ni25   1.901       .  S
O2          C195   1.265   1_554  A
O3           H26   0.966       .  S
O3          Ni19   1.918       .  S
O3         Ni191   1.924       .  S
O3         Ni945   1.912   1_455  S
C4           O21   1.266   1_655  A
C4          O749   1.272       .  A
C4          C115   1.465       .  S
O5          Ni24   1.928       .  S
O5           C11   1.269       .  A
O6          Ni24   1.904       .  S
O6            C8   1.269       .  A
Ni7          O10   1.935       .  S
Ni7          O12   1.904       .  S
Ni7         O187   1.924   1_554  S
C8          O754   1.272       .  A
C8          C182   1.426       .  S
O9          Ni25   1.899   1_556  S
O9           C15   1.266   1_556  A
O10         C751   1.273       .  A
C11         O186   1.265       .  A
C11         C178   1.434       .  S
O12          C14   1.269       .  A
O13         Ni24   1.935       .  S
O13         C740   1.272       .  A
C14         O756   1.271   1_455  A
C14         C184   1.427       .  S
C15         O746   1.273       .  A
C15         C852   1.465       .  S
H16          O17   0.966       .  S
O17         Ni25   1.919       .  S
O17        Ni939   1.912   1_554  S
O17        Ni208   1.925   1_554  S
O18         Ni19   1.931       .  S
O18         C744   1.272   1_455  A
Ni19         O23   1.901       .  S
Ni19         O21   1.900       .  S
Ni19        O937   1.912   1_455  S
O20         Ni25   1.931       .  S
O20         C750   1.271       .  A
C22         O207   1.265   1_554  A
C22         C363   1.435       .  S
O23         C206   1.265       .  A
Ni24        O201   1.925       .  S
Ni25        O923   1.912   1_554  S
O27         Ni33   1.928       .  S
O27          C48   1.269       .  A
O28         Ni51   1.900       .  S
O28          C37   1.265       .  A
O29          H52   0.966       .  S
O29         Ni33   1.924       .  S
O29         Ni45   1.918       .  S
O29        Ni787   1.912   1_455  S
C30          O47   1.266   1_655  A
C30         O775   1.272       .  A
C30         C866   1.465       .  S
O31         Ni50   1.928       .  S
O31          C37   1.269       .  A
O32         Ni50   1.904       .  S
O32          C34   1.269       .  A
Ni33         O36   1.935       .  S
Ni33         O38   1.904       .  S
C34         O780   1.272       .  A
C34         C919   1.427       .  S
O35         Ni51   1.899       .  S
O35          C41   1.266       .  A
O36         C777   1.273       .  A
C37         C173   1.434       .  S
O38          C40   1.269       .  A
O39         Ni50   1.935       .  S
O39         C766   1.272       .  A
C40         O782   1.271   1_455  A
C40         C181   1.426       .  S
C41         O772   1.273       .  A
C41         C129   1.465       .  S
H42          O43   0.966       .  S
O43         Ni51   1.919       .  S
O43         Ni50   1.925       .  S
O43        Ni781   1.912       .  S
O44         Ni45   1.931       .  S
O44         C770   1.272   1_455  A
Ni45         O49   1.901       .  S
Ni45         O47   1.900       .  S
Ni45        O779   1.912   1_455  S
O46         Ni51   1.931       .  S
O46         C776   1.271       .  A
C48          O49   1.265       .  A
C48         C175   1.435       .  S
Ni51        O765   1.912       .  S
O53         Ni59   1.928       .  S
O53         C258   1.269       .  A
O54         Ni77   1.901       .  S
O54         C247   1.265   1_554  A
O55          H78   0.966       .  S
O55         Ni71   1.918       .  S
O55        Ni243   1.924       .  S
O55        Ni261   1.912       .  S
C56          O73   1.266       .  A
C56          O65   1.273       .  A
C56         C144   1.465       .  S
O57         Ni76   1.928       .  S
O57          C63   1.269       .  A
O58         Ni76   1.904       .  S
O58          C60   1.269       .  A
Ni59         O62   1.935       .  S
Ni59         O64   1.904       .  S
Ni59        O239   1.924   1_554  S
C60          O70   1.272       .  A
C60         C169   1.427       .  S
O61         Ni77   1.900   1_556  S
O61          C67   1.266   1_556  A
O62          C67   1.272       .  A
C63         O238   1.265       .  A
C63         C180   1.435       .  S
O64          C66   1.269       .  A
O65         Ni76   1.935       .  S
C66          O72   1.272       .  A
C66         C172   1.426       .  S
C67         C143   1.465       .  S
H68          O69   0.966       .  S
O69         Ni77   1.919       .  S
O69        Ni255   1.912   1_554  S
O69        Ni260   1.924   1_554  S
O70         Ni71   1.931       .  S
Ni71         O75   1.901       .  S
Ni71         O73   1.900       .  S
Ni71        O253   1.912       .  S
O72         Ni77   1.931       .  S
C74          O75   1.265       .  A
C74         O237   1.269       .  A
C74         C177   1.434       .  S
Ni76        O253   1.925       .  S
Ni77        O239   1.912   1_554  S
O79         Ni85   1.928       .  S
O79         C100   1.269       .  A
O80        Ni103   1.901       .  S
O80          C89   1.265       .  A
O81         H104   0.966       .  S
O81         Ni85   1.924       .  S
O81        Ni103   1.912       .  S
O81         Ni97   1.918       .  S
C82          O99   1.266       .  A
C82          O91   1.272       .  A
C82         C157   1.465       .  S
O83        Ni102   1.928       .  S
O83          C89   1.269       .  A
O84        Ni102   1.904       .  S
O84          C86   1.269       .  A
Ni85         O88   1.935       .  S
Ni85         O90   1.904       .  S
C86          O96   1.272       .  A
C86         C171   1.426       .  S
O87        Ni103   1.900       .  S
O87          C93   1.266       .  A
O88          C93   1.273       .  A
C89         C176   1.435       .  S
O90          C92   1.269       .  A
O91        Ni102   1.935       .  S
C92          O98   1.272       .  A
C92         C170   1.427       .  S
C93         C158   1.465       .  S
H94          O95   0.966       .  S
O95        Ni103   1.919       .  S
O95         Ni97   1.912       .  S
O95        Ni102   1.925       .  S
O96         Ni97   1.931       .  S
Ni97        O101   1.900       .  S
Ni97         O99   1.900       .  S
O98        Ni103   1.931       .  S
C100        O101   1.265       .  A
C100        C174   1.434       .  S
O105       Ni113   1.918       .  S
O105        C115   1.281   1_455  A
O106       Ni665   1.917   1_545  S
O106        C116   1.281       .  A
O107       Ni665   1.920       .  S
O107        C117   1.280   1_455  A
O108       Ni113   1.929       .  S
O108        C118   1.282   1_455  A
O109       Ni298   1.920       .  S
O109       C1222   1.280   1_545  A
O110       Ni114   1.929   1_554  S
O110        C853   1.282   1_545  A
O111       Ni114   1.918   1_554  S
O111        C852   1.281       .  A
O112       Ni482   1.917       .  S
O112       C1035   1.281       .  A
Ni113       O658   1.917       .  S
Ni113       O659   1.920       .  S
Ni113     Ni1402   2.392   1_455  S
Ni114       O293   1.920       .  S
Ni114       O480   1.917   1_545  S
Ni114     Ni1401   2.392   1_546  S
C115       O1032   1.281       .  A
C116        O847   1.281   1_455  A
C116        C751   1.465       .  S
C117        O846   1.282   1_565  A
C117        C904   1.444       .  S
C118       O1213   1.280       .  A
C118        C901   1.444       .  S
O119       Ni495   1.917   1_545  S
O119        C865   1.281       .  A
O120       Ni127   1.918       .  S
O120        C866   1.281   1_455  A
O121       Ni127   1.929       .  S
O121        C867   1.282   1_455  A
O122       Ni127   1.920       .  S
O122       C1236   1.280   1_455  A
O123       Ni128   1.929       .  S
O123        C132   1.282   1_545  A
O124       Ni496   1.920       .  S
O124        C131   1.280       .  A
O125       Ni496   1.917       .  S
O125        C130   1.281       .  A
O126       Ni128   1.918       .  S
O126        C129   1.281       .  A
Ni127       O487   1.917       .  S
Ni127     Ni1232   2.392   1_455  S
Ni128       O492   1.920       .  S
Ni128       O493   1.917   1_545  S
Ni128     Ni1231   2.392   1_545  S
C129        O855   1.281       .  A
C130        O856   1.281       .  A
C130        C766   1.465       .  S
C131        O857   1.282       .  A
C131        C167   1.444       .  S
C132       O1226   1.280       .  A
C132        C166   1.444       .  S
O133       Ni509   1.917   1_545  S
O133        C327   1.281       .  A
O134       Ni141   1.918       .  S
O134        C144   1.281       .  A
O135       Ni141   1.929       .  S
O135        C145   1.282       .  A
O136       Ni325   1.920       .  S
O136        C146   1.280       .  A
O137       Ni142   1.929   1_554  S
O137        C514   1.282   1_545  A
O138       Ni694   1.920       .  S
O138        C145   1.280       .  A
O139       Ni510   1.917       .  S
O139        C328   1.281       .  A
O140       Ni142   1.918   1_554  S
O140        C143   1.281       .  A
Ni141       O501   1.917       .  S
Ni141       O320   1.920       .  S
Ni141      Ni694   2.392       .  S
Ni142       O690   1.920       .  S
Ni142       O507   1.917   1_545  S
Ni142      Ni693   2.392   1_546  S
C143        O317   1.281       .  A
C144        O323   1.281       .  A
C145        C161   1.444       .  S
C146        O505   1.282       .  A
C146        C163   1.444       .  S
O147       Ni155   1.918       .  S
O147        C157   1.281       .  A
O148       Ni523   1.917   1_545  S
O148        C158   1.281       .  A
O149       Ni155   1.920       .  S
O149        C527   1.280       .  A
O150       Ni155   1.929       .  S
O150        C160   1.282       .  A
O151       Ni156   1.920       .  S
O151        C528   1.280   1_545  A
O152       Ni156   1.929       .  S
O152        C159   1.282   1_545  A
O153       Ni156   1.918       .  S
O153        C158   1.281       .  A
O154       Ni524   1.917       .  S
O154        C157   1.281       .  A
Ni155       O516   1.917       .  S
Ni155      Ni524   2.392       .  S
Ni156       O522   1.917   1_545  S
Ni156      Ni523   2.392   1_545  S
C159        O517   1.280       .  A
C159        C530   1.444       .  S
C160        O519   1.280       .  A
C160        C164   1.444       .  S
C161        C162   1.211       .  T
C162        C527   1.444       .  S
C163        C164   1.211       .  T
C165        C854   1.444       .  S
C165        C534   1.211       .  T
C166        C533   1.211       .  T
C167        C536   1.211       .  T
C168        C853   1.444       .  S
C168        C535   1.211       .  T
C169        C170   1.201       .  T
C171        C172   1.201       .  T
C173        C174   1.205       .  T
C175        C176   1.206       .  T
C177        C178   1.205       .  T
C179        C206   1.435       .  S
C179        C180   1.206       .  T
C181        C918   1.201   1_455  T
C182        C917   1.201       .  T
C183        C770   1.427       .  S
C183        C184   1.201   1_655  T
O185       Ni191   1.928       .  S
O185        C206   1.269       .  A
O186       Ni209   1.901       .  S
O187        H210   0.966       .  S
O187       Ni761   1.912   1_456  S
O187       Ni203   1.918       .  S
C188        O205   1.266   1_656  A
C188        O933   1.272       .  A
C188        C299   1.465       .  S
O189       Ni208   1.928       .  S
O189        C195   1.269       .  A
O190       Ni208   1.904       .  S
O190        C192   1.269       .  A
Ni191       O194   1.935       .  S
Ni191       O196   1.904       .  S
C192        O938   1.272       .  A
C192        C366   1.426       .  S
O193       Ni209   1.899       .  S
O193        C199   1.266       .  A
O194        C935   1.273       .  A
C195        C362   1.434       .  S
O196        C198   1.269       .  A
O197       Ni208   1.935       .  S
O197        C924   1.272       .  A
C198        O940   1.271   1_455  A
C198        C368   1.427       .  S
C199        O930   1.273       .  A
C199       C1036   1.465       .  S
H200        O201   0.966       .  S
O201       Ni209   1.919       .  S
O201       Ni755   1.912       .  S
O202       Ni203   1.931       .  S
O202        C928   1.272   1_455  A
Ni203       O207   1.901       .  S
Ni203       O205   1.900   1_556  S
Ni203       O753   1.912   1_456  S
O204       Ni209   1.931       .  S
O204        C934   1.271       .  A
Ni209       O739   1.912       .  S
O211       Ni217   1.928       .  S
O211        C232   1.269       .  A
O212       Ni235   1.900       .  S
O212        C221   1.265       .  A
O213        H236   0.966       .  S
O213       Ni217   1.924       .  S
O213       Ni971   1.912   1_455  S
O213       Ni229   1.918       .  S
C214        O231   1.266   1_655  A
C214        O959   1.272       .  A
C214       C1050   1.465       .  S
O215       Ni234   1.928       .  S
O215        C221   1.269       .  A
O216       Ni234   1.904       .  S
O216        C218   1.269       .  A
Ni217       O220   1.935       .  S
Ni217       O222   1.904       .  S
C218        O964   1.272       .  A
C218       C1103   1.427       .  S
O219       Ni235   1.899       .  S
O219        C225   1.266       .  A
O220        C961   1.273       .  A
C221        C357   1.434       .  S
O222        C224   1.269       .  A
O223       Ni234   1.935       .  S
O223        C950   1.272       .  A
C224        O966   1.271   1_455  A
C224        C365   1.426       .  S
C225        O956   1.273       .  A
C225        C313   1.465       .  S
H226        O227   0.966       .  S
O227       Ni235   1.919       .  S
O227       Ni965   1.912       .  S
O227       Ni234   1.925       .  S
O228       Ni229   1.931       .  S
O228        C954   1.272   1_455  A
Ni229       O233   1.901       .  S
Ni229       O231   1.900       .  S
Ni229       O963   1.912   1_455  S
O230       Ni235   1.931       .  S
O230        C960   1.271       .  A
C232        O233   1.265       .  A
C232        C359   1.435       .  S
Ni235       O949   1.912       .  S
O237       Ni243   1.928       .  S
O238       Ni261   1.901       .  S
O239        H262   0.966       .  S
O239       Ni255   1.918       .  S
C240        O257   1.266   1_556  A
C240        O249   1.273       .  A
C240        C328   1.465       .  S
O241       Ni260   1.928       .  S
O241        C247   1.269       .  A
O242       Ni260   1.904       .  S
O242        C244   1.269       .  A
Ni243       O246   1.935       .  S
Ni243       O248   1.904       .  S
C244        O254   1.272       .  A
C244        C353   1.427       .  S
O245       Ni261   1.900       .  S
O245        C251   1.266       .  A
O246        C251   1.272       .  A
C247        C364   1.435       .  S
O248        C250   1.269       .  A
O249       Ni260   1.935       .  S
C250        O256   1.272       .  A
C250        C356   1.426       .  S
C251        C327   1.465       .  S
H252        O253   0.966       .  S
O253       Ni261   1.919       .  S
O254       Ni255   1.931       .  S
Ni255       O259   1.901       .  S
Ni255       O257   1.900   1_556  S
O256       Ni261   1.931       .  S
C258        O259   1.265   1_554  A
C258        C361   1.434       .  S
O263       Ni269   1.928       .  S
O263        C284   1.269       .  A
O264       Ni287   1.901       .  S
O264        C273   1.265       .  A
O265        H288   0.966       .  S
O265       Ni269   1.924       .  S
O265       Ni287   1.912       .  S
O265       Ni281   1.918       .  S
C266        O283   1.266       .  A
C266        O275   1.272       .  A
C266        C341   1.465       .  S
O267       Ni286   1.928       .  S
O267        C273   1.269       .  A
O268       Ni286   1.904       .  S
O268        C270   1.269       .  A
Ni269       O272   1.935       .  S
Ni269       O274   1.904       .  S
C270        O280   1.272       .  A
C270        C355   1.426       .  S
O271       Ni287   1.900       .  S
O271        C277   1.266       .  A
O272        C277   1.273       .  A
C273        C360   1.435       .  S
O274        C276   1.269       .  A
O275       Ni286   1.935       .  S
C276        O282   1.272       .  A
C276        C354   1.427       .  S
C277        C342   1.465       .  S
H278        O279   0.966       .  S
O279       Ni287   1.919       .  S
O279       Ni281   1.912       .  S
O279       Ni286   1.925       .  S
O280       Ni281   1.931       .  S
Ni281       O285   1.900       .  S
Ni281       O283   1.900       .  S
O282       Ni287   1.931       .  S
C284        O285   1.265       .  A
C284        C358   1.434       .  S
O289       Ni297   1.918   1_556  S
O289        C299   1.281   1_455  A
O290       Ni481   1.917   1_545  S
O290        C300   1.281       .  A
O291       Ni481   1.920       .  S
O291        C301   1.280   1_455  A
O292       Ni297   1.929   1_556  S
O292        C302   1.282   1_455  A
O293       C1406   1.280   1_545  A
O294       Ni298   1.929       .  S
O294       C1037   1.282   1_545  A
O295       Ni298   1.918       .  S
O295       C1036   1.281       .  A
O296       Ni666   1.917       .  S
O296        C851   1.281       .  A
Ni297       O474   1.917       .  S
Ni297       O475   1.920       .  S
Ni297     Ni1218   2.392   1_454  S
Ni298       O664   1.917   1_545  S
Ni298     Ni1217   2.392   1_545  S
C299        O848   1.281       .  A
C300       O1031   1.281   1_455  A
C300        C935   1.465       .  S
C301       O1030   1.282   1_565  A
C301       C1088   1.444       .  S
C302       O1397   1.280       .  A
C302       C1085   1.444       .  S
O303       Ni679   1.917   1_545  S
O303       C1049   1.281       .  A
O304       Ni311   1.918       .  S
O304       C1050   1.281   1_455  A
O305       Ni311   1.929       .  S
O305       C1051   1.282   1_455  A
O306       Ni311   1.920       .  S
O306       C1420   1.280   1_455  A
O307       Ni312   1.929       .  S
O307        C316   1.282   1_545  A
O308       Ni680   1.920       .  S
O308        C315   1.280       .  A
O309       Ni680   1.917       .  S
O309        C314   1.281       .  A
O310       Ni312   1.918       .  S
O310        C313   1.281       .  A
Ni311       O671   1.917       .  S
Ni311     Ni1416   2.392   1_455  S
Ni312       O676   1.920       .  S
Ni312       O677   1.917   1_545  S
Ni312     Ni1415   2.392   1_545  S
C313       O1039   1.281       .  A
C314       O1040   1.281       .  A
C314        C950   1.465       .  S
C315       O1041   1.282       .  A
C315        C351   1.444       .  S
C316       O1410   1.280       .  A
C316        C350   1.444       .  S
O317       Ni693   1.917   1_545  S
O318       Ni325   1.918   1_556  S
O318        C328   1.281       .  A
O319       Ni325   1.929   1_556  S
O319        C329   1.282       .  A
O320        C330   1.280       .  A
O321       Ni326   1.929       .  S
O321        C698   1.282   1_545  A
O322       Ni510   1.920       .  S
O322        C329   1.280       .  A
O323       Ni694   1.917       .  S
O324       Ni326   1.918       .  S
O324        C327   1.281       .  A
Ni325       O685   1.917       .  S
Ni325      Ni510   2.392   1_554  S
Ni326       O506   1.920       .  S
Ni326       O691   1.917   1_545  S
Ni326      Ni509   2.392   1_545  S
C329        C345   1.444       .  S
C330        O689   1.282       .  A
C330        C347   1.444       .  S
O331       Ni339   1.918       .  S
O331        C341   1.281       .  A
O332       Ni707   1.917   1_545  S
O332        C342   1.281       .  A
O333       Ni339   1.920       .  S
O333        C711   1.280       .  A
O334       Ni339   1.929       .  S
O334        C344   1.282       .  A
O335       Ni340   1.920       .  S
O335        C712   1.280   1_545  A
O336       Ni340   1.929       .  S
O336        C343   1.282   1_545  A
O337       Ni340   1.918       .  S
O337        C342   1.281       .  A
O338       Ni708   1.917       .  S
O338        C341   1.281       .  A
Ni339       O700   1.917       .  S
Ni339      Ni708   2.392       .  S
Ni340       O706   1.917   1_545  S
Ni340      Ni707   2.392   1_545  S
C343        O701   1.280       .  A
C343        C714   1.444       .  S
C344        O703   1.280       .  A
C344        C348   1.444       .  S
C345        C346   1.211       .  T
C346        C711   1.444       .  S
C347        C348   1.211       .  T
C349       C1038   1.444       .  S
C349        C718   1.211       .  T
C350        C717   1.211       .  T
C351        C720   1.211       .  T
C352       C1037   1.444       .  S
C352        C719   1.211       .  T
C353        C354   1.201       .  T
C355        C356   1.201       .  T
C357        C358   1.205       .  T
C359        C360   1.206       .  T
C361        C362   1.205   1_554  T
C363        C364   1.206   1_554  T
C365       C1102   1.201   1_455  T
C366       C1101   1.201       .  T
C367        C954   1.427       .  S
C367        C368   1.201   1_655  T
O369       Ni375   1.928       .  S
O369        C390   1.269       .  A
O370       Ni393   1.901       .  S
O370        C563   1.265   1_554  A
O371        H394   0.966       .  S
O371       Ni559   1.924       .  S
O371      Ni1313   1.912   1_455  S
O371       Ni387   1.918       .  S
C372        O389   1.266   1_655  A
C372       O1117   1.272       .  A
C372        C483   1.465       .  S
O373       Ni392   1.928       .  S
O373        C379   1.269       .  A
O374       Ni392   1.904       .  S
O374        C376   1.269       .  A
Ni375       O378   1.935       .  S
Ni375       O380   1.904       .  S
Ni375       O555   1.924   1_554  S
C376       O1122   1.272       .  A
C376        C550   1.426       .  S
O377       Ni393   1.900   1_556  S
O377        C383   1.266   1_556  A
O378       C1119   1.273       .  A
C379        O554   1.265       .  A
C379        C546   1.434       .  S
O380        C382   1.269       .  A
O381       Ni392   1.935       .  S
O381       C1108   1.272       .  A
C382       O1124   1.271   1_455  A
C382        C552   1.427       .  S
C383       O1114   1.273       .  A
C383       C1220   1.465       .  S
H384        O385   0.966       .  S
O385       Ni393   1.919       .  S
O385      Ni1307   1.912   1_554  S
O385       Ni576   1.925   1_554  S
O386       Ni387   1.931       .  S
O386       C1112   1.272   1_455  A
Ni387       O391   1.901       .  S
Ni387       O389   1.900       .  S
Ni387      O1305   1.912   1_455  S
O388       Ni393   1.931       .  S
O388       C1118   1.271       .  A
C390        O575   1.265   1_554  A
C390        C731   1.435       .  S
O391        C574   1.265       .  A
Ni392       O569   1.925       .  S
Ni393      O1291   1.912   1_554  S
O395       Ni401   1.928       .  S
O395        C416   1.269       .  A
O396       Ni419   1.900       .  S
O396        C405   1.265       .  A
O397        H420   0.966       .  S
O397       Ni401   1.924       .  S
O397      Ni1155   1.912   1_455  S
O397       Ni413   1.918       .  S
C398        O415   1.266   1_655  A
C398       O1143   1.272       .  A
C398       C1234   1.465       .  S
O399       Ni418   1.928       .  S
O399        C405   1.269       .  A
O400       Ni418   1.904       .  S
O400        C402   1.269       .  A
Ni401       O404   1.935       .  S
Ni401       O406   1.904       .  S
C402       O1148   1.272       .  A
C402       C1287   1.427       .  S
O403       Ni419   1.900       .  S
O403        C409   1.266       .  A
O404       C1145   1.273       .  A
C405        C541   1.434       .  S
O406        C408   1.269       .  A
O407       Ni418   1.935       .  S
O407       C1134   1.272       .  A
C408       O1150   1.271   1_455  A
C408        C549   1.426       .  S
C409       O1140   1.273       .  A
C409        C497   1.465       .  S
H410        O411   0.966       .  S
O411       Ni419   1.919       .  S
O411      Ni1149   1.912       .  S
O411       Ni418   1.925       .  S
O412       Ni413   1.931       .  S
O412       C1138   1.272   1_455  A
Ni413       O417   1.901       .  S
Ni413       O415   1.900       .  S
Ni413      O1147   1.912   1_455  S
O414       Ni419   1.931       .  S
O414       C1144   1.271       .  A
C416        O417   1.265       .  A
C416        C543   1.435       .  S
Ni419      O1133   1.912       .  S
O421       Ni427   1.928       .  S
O421        C626   1.269       .  A
O422       Ni445   1.901       .  S
O422        C615   1.265   1_554  A
O423        H446   0.966       .  S
O423       Ni611   1.924       .  S
O423       Ni629   1.912       .  S
O423       Ni439   1.918       .  S
C424        O441   1.266       .  A
C424        O433   1.273       .  A
C424        C512   1.465       .  S
O425       Ni444   1.928       .  S
O425        C431   1.269       .  A
O426       Ni444   1.904       .  S
O426        C428   1.269       .  A
Ni427       O430   1.935       .  S
Ni427       O432   1.904       .  S
Ni427       O607   1.924   1_554  S
C428        O438   1.272       .  A
C428        C537   1.427       .  S
O429       Ni445   1.900   1_556  S
O429        C435   1.266   1_556  A
O430        C435   1.272       .  A
C431        O606   1.265       .  A
C431        C548   1.435       .  S
O432        C434   1.269       .  A
O433       Ni444   1.935       .  S
C434        O440   1.272       .  A
C434        C540   1.426       .  S
C435        C511   1.465       .  S
H436        O437   0.966       .  S
O437       Ni445   1.919       .  S
O437       Ni623   1.912   1_554  S
O437       Ni628   1.924   1_554  S
O438       Ni439   1.931       .  S
Ni439       O443   1.901       .  S
Ni439       O441   1.900       .  S
Ni439       O621   1.912       .  S
O440       Ni445   1.931       .  S
C442        O605   1.269       .  A
C442        O443   1.265       .  A
C442        C545   1.434       .  S
Ni444       O621   1.925       .  S
Ni445       O607   1.912   1_554  S
O447       Ni453   1.928       .  S
O447        C468   1.269       .  A
O448       Ni471   1.901       .  S
O448        C457   1.265       .  A
O449        H472   0.966       .  S
O449       Ni453   1.924       .  S
O449       Ni471   1.912       .  S
O449       Ni465   1.918       .  S
C450        O467   1.266       .  A
C450        O459   1.272       .  A
C450        C525   1.465       .  S
O451       Ni470   1.928       .  S
O451        C457   1.269       .  A
O452       Ni470   1.904       .  S
O452        C454   1.269       .  A
Ni453       O456   1.935       .  S
Ni453       O458   1.904       .  S
C454        O464   1.272       .  A
C454        C539   1.426       .  S
O455       Ni471   1.899       .  S
O455        C461   1.266       .  A
O456        C461   1.273       .  A
C457        C544   1.435       .  S
O458        C460   1.269       .  A
O459       Ni470   1.935       .  S
C460        O466   1.272       .  A
C460        C538   1.427       .  S
C461        C526   1.465       .  S
H462        O463   0.966       .  S
O463       Ni471   1.919       .  S
O463       Ni465   1.912       .  S
O463       Ni470   1.925       .  S
O464       Ni465   1.931       .  S
Ni465       O469   1.900       .  S
Ni465       O467   1.900       .  S
O466       Ni471   1.931       .  S
C468        O469   1.265       .  A
C468        C542   1.434       .  S
O473       Ni481   1.918       .  S
O473        C483   1.281   1_455  A
O474        C484   1.281       .  A
O475        C485   1.280   1_455  A
O476       Ni481   1.929       .  S
O476        C486   1.282   1_455  A
O477       Ni666   1.920       .  S
O477        C854   1.280       .  A
O478       Ni482   1.929   1_554  S
O478       C1221   1.282       .  A
O479       Ni482   1.918   1_554  S
O479       C1220   1.281       .  A
O480       C1403   1.281       .  A
Ni481     Ni1034   2.392   1_465  S
Ni482       O661   1.920       .  S
Ni482     Ni1033   2.392   1_556  S
C483       O1400   1.281       .  A
C484       O1215   1.281   1_455  A
C484       C1119   1.465       .  S
C485       O1214   1.282       .  A
C485       C1272   1.444       .  S
C486        O845   1.280   1_565  A
C486       C1269   1.444       .  S
O487       C1233   1.281       .  A
O488       Ni495   1.918       .  S
O488       C1234   1.281   1_455  A
O489       Ni495   1.929       .  S
O489       C1235   1.282   1_455  A
O490       Ni495   1.920       .  S
O490        C868   1.280   1_455  A
O491       Ni496   1.929       .  S
O491        C500   1.282       .  A
O492        C499   1.280   1_545  A
O493        C498   1.281       .  A
O494       Ni496   1.918       .  S
O494        C497   1.281       .  A
Ni495      Ni864   2.392   1_465  S
Ni496      Ni863   2.392       .  S
C497       O1223   1.281       .  A
C498       O1224   1.281       .  A
C498       C1134   1.465       .  S
C499       O1225   1.282       .  A
C499        C535   1.444       .  S
C500        O858   1.280       .  A
C500        C534   1.444       .  S
O501        C695   1.281       .  A
O502       Ni509   1.918       .  S
O502        C512   1.281       .  A
O503       Ni509   1.929       .  S
O503        C513   1.282       .  A
O504       Ni693   1.920       .  S
O504        C514   1.280       .  A
O505       Ni510   1.929   1_554  S
O506        C513   1.280   1_545  A
O507        C696   1.281       .  A
O508       Ni510   1.918   1_554  S
O508        C511   1.281       .  A
Ni509       O688   1.920       .  S
C511        O685   1.281       .  A
C512        O691   1.281       .  A
C513        C529   1.444       .  S
C514        C531   1.444       .  S
O515       Ni523   1.918       .  S
O515        C525   1.281       .  A
O516        C526   1.281       .  A
O517       Ni523   1.920       .  S
O518       Ni523   1.929       .  S
O518        C528   1.282       .  A
O519       Ni524   1.920       .  S
O520       Ni524   1.929       .  S
O520        C527   1.282       .  A
O521       Ni524   1.918       .  S
O521        C526   1.281       .  A
O522        C525   1.281       .  A
C528        C532   1.444       .  S
C529        C530   1.211       .  T
C531        C532   1.211       .  T
C533       C1222   1.444       .  S
C536       C1221   1.444       .  S
C537        C538   1.201       .  T
C539        C540   1.201       .  T
C541        C542   1.205       .  T
C543        C544   1.206       .  T
C545        C546   1.205       .  T
C547        C574   1.435       .  S
C547        C548   1.206       .  T
C549       C1286   1.201   1_455  T
C550       C1285   1.201       .  T
C551       C1138   1.427       .  S
C551        C552   1.201   1_655  T
O553       Ni559   1.928       .  S
O553        C574   1.269       .  A
O554       Ni577   1.901       .  S
O555        H578   0.966       .  S
O555      Ni1129   1.912   1_456  S
O555       Ni571   1.918       .  S
C556        O573   1.266   1_656  A
C556       O1301   1.272       .  A
C556        C667   1.465       .  S
O557       Ni576   1.928       .  S
O557        C563   1.269       .  A
O558       Ni576   1.904       .  S
O558        C560   1.269       .  A
Ni559       O562   1.935       .  S
Ni559       O564   1.904       .  S
C560       O1306   1.272       .  A
C560        C734   1.426       .  S
O561       Ni577   1.899       .  S
O561        C567   1.266       .  A
O562       C1303   1.273       .  A
C563        C730   1.434       .  S
O564        C566   1.269       .  A
O565       Ni576   1.935       .  S
O565       C1292   1.272       .  A
C566       O1308   1.271   1_455  A
C566        C736   1.427       .  S
C567       O1298   1.273       .  A
C567       C1404   1.465       .  S
H568        O569   0.966       .  S
O569       Ni577   1.919       .  S
O569      Ni1123   1.912       .  S
O570       Ni571   1.931       .  S
O570       C1296   1.272   1_455  A
Ni571       O575   1.901       .  S
Ni571       O573   1.900   1_556  S
Ni571      O1121   1.912   1_456  S
O572       Ni577   1.931       .  S
O572       C1302   1.271       .  A
Ni577      O1107   1.912       .  S
O579       Ni585   1.928       .  S
O579        C600   1.269       .  A
O580       Ni603   1.900       .  S
O580        C589   1.265       .  A
O581        H604   0.966       .  S
O581       Ni585   1.924       .  S
O581      Ni1339   1.912   1_455  S
O581       Ni597   1.918       .  S
C582        O599   1.266   1_655  A
C582       O1327   1.272       .  A
C582       C1418   1.465       .  S
O583       Ni602   1.928       .  S
O583        C589   1.269       .  A
O584       Ni602   1.904       .  S
O584        C586   1.269       .  A
Ni585       O588   1.935       .  S
Ni585       O590   1.904       .  S
C586       O1332   1.272       .  A
C586       C1471   1.427       .  S
O587       Ni603   1.899       .  S
O587        C593   1.266       .  A
O588       C1329   1.273       .  A
C589        C725   1.434       .  S
O590        C592   1.269       .  A
O591       Ni602   1.935       .  S
O591       C1318   1.272       .  A
C592       O1334   1.271   1_455  A
C592        C733   1.426       .  S
C593       O1324   1.273       .  A
C593        C681   1.465       .  S
H594        O595   0.966       .  S
O595       Ni603   1.919       .  S
O595      Ni1333   1.912       .  S
O595       Ni602   1.925       .  S
O596       Ni597   1.931       .  S
O596       C1322   1.272   1_455  A
Ni597       O601   1.901       .  S
Ni597       O599   1.900       .  S
Ni597      O1331   1.912   1_455  S
O598       Ni603   1.931       .  S
O598       C1328   1.271       .  A
C600        O601   1.265       .  A
C600        C727   1.435       .  S
Ni603      O1317   1.912       .  S
O605       Ni611   1.928       .  S
O606       Ni629   1.901       .  S
O607        H630   0.966       .  S
O607       Ni623   1.918       .  S
C608        O625   1.266   1_556  A
C608        O617   1.273       .  A
C608        C696   1.465       .  S
O609       Ni628   1.928       .  S
O609        C615   1.269       .  A
O610       Ni628   1.904       .  S
O610        C612   1.269       .  A
Ni611       O614   1.935       .  S
Ni611       O616   1.904       .  S
C612        O622   1.272       .  A
C612        C721   1.427       .  S
O613       Ni629   1.900       .  S
O613        C619   1.266       .  A
O614        C619   1.272       .  A
C615        C732   1.435       .  S
O616        C618   1.269       .  A
O617       Ni628   1.935       .  S
C618        O624   1.272       .  A
C618        C724   1.426       .  S
C619        C695   1.465       .  S
H620        O621   0.966       .  S
O621       Ni629   1.919       .  S
O622       Ni623   1.931       .  S
Ni623       O627   1.901       .  S
Ni623       O625   1.900   1_556  S
O624       Ni629   1.931       .  S
C626        O627   1.265   1_554  A
C626        C729   1.434       .  S
O631       Ni637   1.928       .  S
O631        C652   1.269       .  A
O632       Ni655   1.901       .  S
O632        C641   1.265       .  A
O633        H656   0.966       .  S
O633       Ni637   1.924       .  S
O633       Ni655   1.912       .  S
O633       Ni649   1.918       .  S
C634        O651   1.266       .  A
C634        O643   1.272       .  A
C634        C709   1.465       .  S
O635       Ni654   1.928       .  S
O635        C641   1.269       .  A
O636       Ni654   1.904       .  S
O636        C638   1.269       .  A
Ni637       O640   1.935       .  S
Ni637       O642   1.904       .  S
C638        O648   1.272       .  A
C638        C723   1.426       .  S
O639       Ni655   1.900       .  S
O639        C645   1.266       .  A
O640        C645   1.273       .  A
C641        C728   1.435       .  S
O642        C644   1.269       .  A
O643       Ni654   1.935       .  S
C644        O650   1.272       .  A
C644        C722   1.427       .  S
C645        C710   1.465       .  S
H646        O647   0.966       .  S
O647       Ni655   1.919       .  S
O647       Ni649   1.912       .  S
O647       Ni654   1.925       .  S
O648       Ni649   1.931       .  S
Ni649       O653   1.900       .  S
Ni649       O651   1.900       .  S
O650       Ni655   1.931       .  S
C652        O653   1.265       .  A
C652        C726   1.434       .  S
O657       Ni665   1.918   1_556  S
O657        C667   1.281   1_455  A
O658        C668   1.281       .  A
O659        C669   1.280   1_455  A
O660       Ni665   1.929   1_556  S
O660        C670   1.282   1_455  A
O661       C1038   1.280       .  A
O662       Ni666   1.929       .  S
O662       C1405   1.282       .  A
O663       Ni666   1.918       .  S
O663       C1404   1.281       .  A
O664       C1219   1.281       .  A
Ni665      Ni850   2.392   1_464  S
Ni666      Ni849   2.392       .  S
C667       O1216   1.281       .  A
C668       O1399   1.281   1_455  A
C668       C1303   1.465       .  S
C669       O1398   1.282       .  A
C669       C1456   1.444       .  S
C670       O1029   1.280   1_565  A
C670       C1453   1.444       .  S
O671       C1417   1.281       .  A
O672       Ni679   1.918       .  S
O672       C1418   1.281   1_455  A
O673       Ni679   1.929       .  S
O673       C1419   1.282   1_455  A
O674       Ni679   1.920       .  S
O674       C1052   1.280   1_455  A
O675       Ni680   1.929       .  S
O675        C684   1.282       .  A
O676        C683   1.280   1_545  A
O677        C682   1.281       .  A
O678       Ni680   1.918       .  S
O678        C681   1.281       .  A
Ni679     Ni1048   2.392   1_465  S
Ni680     Ni1047   2.392       .  S
C681       O1407   1.281       .  A
C682       O1408   1.281       .  A
C682       C1318   1.465       .  S
C683       O1409   1.282       .  A
C683        C719   1.444       .  S
C684       O1042   1.280       .  A
C684        C718   1.444       .  S
O686       Ni693   1.918   1_556  S
O686        C696   1.281       .  A
O687       Ni693   1.929   1_556  S
O687        C697   1.282       .  A
O688        C698   1.280       .  A
O689       Ni694   1.929       .  S
O690        C697   1.280   1_545  A
O692       Ni694   1.918       .  S
O692        C695   1.281       .  A
C697        C713   1.444       .  S
C698        C715   1.444       .  S
O699       Ni707   1.918       .  S
O699        C709   1.281       .  A
O700        C710   1.281       .  A
O701       Ni707   1.920       .  S
O702       Ni707   1.929       .  S
O702        C712   1.282       .  A
O703       Ni708   1.920       .  S
O704       Ni708   1.929       .  S
O704        C711   1.282       .  A
O705       Ni708   1.918       .  S
O705        C710   1.281       .  A
O706        C709   1.281       .  A
C712        C716   1.444       .  S
C713        C714   1.211       .  T
C715        C716   1.211       .  T
C717       C1406   1.444       .  S
C720       C1405   1.444       .  S
C721        C722   1.201       .  T
C723        C724   1.201       .  T
C725        C726   1.205       .  T
C727        C728   1.206       .  T
C729        C730   1.205   1_554  T
C731        C732   1.206   1_554  T
C733       C1470   1.201   1_455  T
C734       C1469   1.201       .  T
C735       C1322   1.427       .  S
C735        C736   1.201   1_655  T
O737       Ni743   1.928       .  S
O737        C758   1.269       .  A
O738       Ni761   1.901       .  S
O738        C931   1.265   1_554  A
O739        H762   0.966       .  S
O739       Ni927   1.924       .  S
O739       Ni755   1.918       .  S
C740        O757   1.266       .  A
C740        C851   1.465       .  S
O741       Ni760   1.928       .  S
O741        C747   1.269       .  A
O742       Ni760   1.904       .  S
O742        C744   1.269       .  A
Ni743       O746   1.935       .  S
Ni743       O748   1.904       .  S
Ni743       O923   1.924   1_554  S
C744        C918   1.426       .  S
O745       Ni761   1.900   1_556  S
O745        C751   1.266   1_656  A
C747        O922   1.265       .  A
C747        C914   1.434       .  S
O748        C750   1.269       .  A
O749       Ni760   1.935       .  S
C750        C920   1.427       .  S
H752        O753   0.966       .  S
O753       Ni761   1.919       .  S
O753       Ni944   1.925   1_554  S
O754       Ni755   1.931       .  S
Ni755       O759   1.901       .  S
Ni755       O757   1.900       .  S
O756       Ni761   1.931       .  S
C758        O943   1.265   1_554  A
C758       C1099   1.435       .  S
O759        C942   1.265       .  A
Ni760       O937   1.925       .  S
O763       Ni769   1.928       .  S
O763        C784   1.269       .  A
O764       Ni787   1.900       .  S
O764        C773   1.265       .  A
O765        H788   0.966       .  S
O765       Ni769   1.924       .  S
O765       Ni781   1.918       .  S
C766        O783   1.266       .  A
O767       Ni786   1.928       .  S
O767        C773   1.269       .  A
O768       Ni786   1.904       .  S
O768        C770   1.269       .  A
Ni769       O772   1.935       .  S
Ni769       O774   1.904       .  S
O771       Ni787   1.899       .  S
O771        C777   1.266   1_655  A
C773        C909   1.434       .  S
O774        C776   1.269       .  A
O775       Ni786   1.935       .  S
C776        C917   1.426       .  S
C777        C865   1.465       .  S
H778        O779   0.966       .  S
O779       Ni787   1.919       .  S
O779       Ni786   1.925       .  S
O780       Ni781   1.931       .  S
Ni781       O785   1.901       .  S
Ni781       O783   1.900       .  S
O782       Ni787   1.931       .  S
C784        O785   1.265       .  A
C784        C911   1.435       .  S
O789       Ni795   1.928       .  S
O789        C994   1.269       .  A
O790       Ni813   1.901       .  S
O790        C983   1.265   1_554  A
O791        H814   0.966       .  S
O791       Ni979   1.924       .  S
O791       Ni997   1.912       .  S
O791       Ni807   1.918       .  S
C792        O809   1.266       .  A
C792        O801   1.273       .  A
C792        C880   1.465       .  S
O793       Ni812   1.928       .  S
O793        C799   1.269       .  A
O794       Ni812   1.904       .  S
O794        C796   1.269       .  A
Ni795       O798   1.935       .  S
Ni795       O800   1.904       .  S
Ni795       O975   1.924   1_554  S
C796        O806   1.272       .  A
C796        C905   1.427       .  S
O797       Ni813   1.900   1_556  S
O797        C803   1.266   1_556  A
O798        C803   1.272       .  A
C799        O974   1.265       .  A
C799        C916   1.435       .  S
O800        C802   1.269       .  A
O801       Ni812   1.935       .  S
C802        O808   1.272       .  A
C802        C908   1.426       .  S
C803        C879   1.465       .  S
H804        O805   0.966       .  S
O805       Ni813   1.919       .  S
O805       Ni991   1.912   1_554  S
O805       Ni996   1.924   1_554  S
O806       Ni807   1.931       .  S
Ni807       O811   1.901       .  S
Ni807       O809   1.900       .  S
Ni807       O989   1.912       .  S
O808       Ni813   1.931       .  S
C810        O973   1.269       .  A
C810        O811   1.265       .  A
C810        C913   1.434       .  S
Ni812       O989   1.925       .  S
Ni813       O975   1.912   1_554  S
O815       Ni821   1.928       .  S
O815        C836   1.269       .  A
O816       Ni839   1.901       .  S
O816        C825   1.265       .  A
O817        H840   0.966       .  S
O817       Ni821   1.924       .  S
O817       Ni839   1.912       .  S
O817       Ni833   1.918       .  S
C818        O835   1.266       .  A
C818        O827   1.272       .  A
C818        C893   1.465       .  S
O819       Ni838   1.928       .  S
O819        C825   1.269       .  A
O820       Ni838   1.904       .  S
O820        C822   1.269       .  A
Ni821       O824   1.935       .  S
Ni821       O826   1.904       .  S
C822        O832   1.272       .  A
C822        C907   1.426       .  S
O823       Ni839   1.900       .  S
O823        C829   1.266       .  A
O824        C829   1.273       .  A
C825        C912   1.435       .  S
O826        C828   1.269       .  A
O827       Ni838   1.935       .  S
C828        O834   1.272       .  A
C828        C906   1.427       .  S
C829        C894   1.465       .  S
H830        O831   0.966       .  S
O831       Ni839   1.919       .  S
O831       Ni833   1.912       .  S
O831       Ni838   1.925       .  S
O832       Ni833   1.931       .  S
Ni833       O837   1.900       .  S
Ni833       O835   1.900       .  S
O834       Ni839   1.931       .  S
C836        O837   1.265       .  A
C836        C910   1.434       .  S
O841       Ni849   1.918       .  S
O841        C851   1.281       .  A
O842      Ni1401   1.917   1_545  S
O842        C852   1.281       .  A
O843      Ni1401   1.920       .  S
O843        C853   1.280       .  A
O844       Ni849   1.929       .  S
O844        C854   1.282       .  A
O845      Ni1034   1.920       .  S
O846       Ni850   1.929   1_554  S
O847       Ni850   1.918   1_554  S
O848      Ni1218   1.917       .  S
Ni849      O1394   1.917       .  S
Ni849      O1395   1.920       .  S
Ni850      O1029   1.920       .  S
Ni850      O1216   1.917   1_545  S
O855      Ni1231   1.917   1_545  S
O856       Ni863   1.918       .  S
O857       Ni863   1.929       .  S
O858       Ni863   1.920       .  S
O859       Ni864   1.929       .  S
O859        C868   1.282   1_545  A
O860      Ni1232   1.920       .  S
O860        C867   1.280       .  A
O861      Ni1232   1.917       .  S
O861        C866   1.281       .  A
O862       Ni864   1.918       .  S
O862        C865   1.281   1_655  A
Ni863      O1223   1.917       .  S
Ni864      O1228   1.920       .  S
Ni864      O1229   1.917   1_545  S
C867        C903   1.444       .  S
C868        C902   1.444       .  S
O869      Ni1245   1.917   1_545  S
O869       C1063   1.281       .  A
O870       Ni877   1.918       .  S
O870        C880   1.281       .  A
O871       Ni877   1.929       .  S
O871        C881   1.282       .  A
O872      Ni1061   1.920       .  S
O872        C882   1.280       .  A
O873       Ni878   1.929   1_554  S
O873       C1250   1.282   1_545  A
O874      Ni1430   1.920       .  S
O874        C881   1.280       .  A
O875      Ni1246   1.917       .  S
O875       C1064   1.281       .  A
O876       Ni878   1.918   1_554  S
O876        C879   1.281       .  A
Ni877      O1237   1.917       .  S
Ni877      O1056   1.920       .  S
Ni877     Ni1430   2.392       .  S
Ni878      O1426   1.920       .  S
Ni878      O1243   1.917   1_545  S
Ni878     Ni1429   2.392   1_546  S
C879       O1053   1.281       .  A
C880       O1059   1.281       .  A
C881        C897   1.444       .  S
C882       O1241   1.282       .  A
C882        C899   1.444       .  S
O883       Ni891   1.918       .  S
O883        C893   1.281       .  A
O884      Ni1259   1.917   1_545  S
O884        C894   1.281       .  A
O885       Ni891   1.920       .  S
O885       C1263   1.280       .  A
O886       Ni891   1.929       .  S
O886        C896   1.282       .  A
O887       Ni892   1.920       .  S
O887       C1264   1.280   1_545  A
O888       Ni892   1.929       .  S
O888        C895   1.282   1_545  A
O889       Ni892   1.918       .  S
O889        C894   1.281       .  A
O890      Ni1260   1.917       .  S
O890        C893   1.281       .  A
Ni891      O1252   1.917       .  S
Ni891     Ni1260   2.392       .  S
Ni892      O1258   1.917   1_545  S
Ni892     Ni1259   2.392   1_545  S
C895       O1253   1.280       .  A
C895       C1266   1.444       .  S
C896       O1255   1.280       .  A
C896        C900   1.444       .  S
C897        C898   1.211       .  T
C898       C1263   1.444       .  S
C899        C900   1.211       .  T
C901       C1270   1.211       .  T
C902       C1269   1.211       .  T
C903       C1272   1.211       .  T
C904       C1271   1.211       .  T
C905        C906   1.201       .  T
C907        C908   1.201       .  T
C909        C910   1.205       .  T
C911        C912   1.206       .  T
C913        C914   1.205       .  T
C915        C942   1.435       .  S
C915        C916   1.206       .  T
C919        C920   1.201       .  T
O921       Ni927   1.928       .  S
O921        C942   1.269       .  A
O922       Ni945   1.901       .  S
O923        H946   0.966       .  S
O923       Ni939   1.918       .  S
C924        O941   1.266   1_556  A
C924       C1035   1.465       .  S
O925       Ni944   1.928       .  S
O925        C931   1.269       .  A
O926       Ni944   1.904       .  S
O926        C928   1.269       .  A
Ni927       O930   1.935       .  S
Ni927       O932   1.904       .  S
C928       C1102   1.426       .  S
O929       Ni945   1.899       .  S
O929        C935   1.266   1_655  A
C931       C1098   1.434       .  S
O932        C934   1.269       .  A
O933       Ni944   1.935       .  S
C934       C1104   1.427       .  S
H936        O937   0.966       .  S
O937       Ni945   1.919       .  S
O938       Ni939   1.931       .  S
Ni939       O943   1.901       .  S
Ni939       O941   1.900   1_556  S
O940       Ni945   1.931       .  S
O947       Ni953   1.928       .  S
O947        C968   1.269       .  A
O948       Ni971   1.900       .  S
O948        C957   1.265       .  A
O949        H972   0.966       .  S
O949       Ni953   1.924       .  S
O949       Ni965   1.918       .  S
C950        O967   1.266       .  A
O951       Ni970   1.928       .  S
O951        C957   1.269       .  A
O952       Ni970   1.904       .  S
O952        C954   1.269       .  A
Ni953       O956   1.935       .  S
Ni953       O958   1.904       .  S
O955       Ni971   1.899       .  S
O955        C961   1.266   1_655  A
C957       C1093   1.434       .  S
O958        C960   1.269       .  A
O959       Ni970   1.935       .  S
C960       C1101   1.426       .  S
C961       C1049   1.465       .  S
H962        O963   0.966       .  S
O963       Ni971   1.919       .  S
O963       Ni970   1.925       .  S
O964       Ni965   1.931       .  S
Ni965       O969   1.901       .  S
Ni965       O967   1.900       .  S
O966       Ni971   1.931       .  S
C968        O969   1.265       .  A
C968       C1095   1.435       .  S
O973       Ni979   1.928       .  S
O974       Ni997   1.901       .  S
O975        H998   0.966       .  S
O975       Ni991   1.918       .  S
C976        O993   1.266   1_556  A
C976        O985   1.273       .  A
C976       C1064   1.465       .  S
O977       Ni996   1.928       .  S
O977        C983   1.269       .  A
O978       Ni996   1.904       .  S
O978        C980   1.269       .  A
Ni979       O982   1.935       .  S
Ni979       O984   1.904       .  S
C980        O990   1.272       .  A
C980       C1089   1.427       .  S
O981       Ni997   1.900       .  S
O981        C987   1.266       .  A
O982        C987   1.272       .  A
C983       C1100   1.435       .  S
O984        C986   1.269       .  A
O985       Ni996   1.935       .  S
C986        O992   1.272       .  A
C986       C1092   1.426       .  S
C987       C1063   1.465       .  S
H988        O989   0.966       .  S
O989       Ni997   1.919       .  S
O990       Ni991   1.931       .  S
Ni991       O995   1.901       .  S
Ni991       O993   1.900   1_556  S
O992       Ni997   1.931       .  S
C994        O995   1.265   1_554  A
C994       C1097   1.434       .  S
O999      Ni1005   1.928       .  S
O999       C1020   1.269       .  A
O1000     Ni1023   1.901       .  S
O1000      C1009   1.265       .  A
O1001      H1024   0.966       .  S
O1001     Ni1005   1.924       .  S
O1001     Ni1023   1.912       .  S
O1001     Ni1017   1.918       .  S
C1002      O1019   1.266       .  A
C1002      O1011   1.272       .  A
C1002      C1077   1.465       .  S
O1003     Ni1022   1.928       .  S
O1003      C1009   1.269       .  A
O1004     Ni1022   1.904       .  S
O1004      C1006   1.269       .  A
Ni1005     O1008   1.935       .  S
Ni1005     O1010   1.904       .  S
C1006      O1016   1.272       .  A
C1006      C1091   1.426       .  S
O1007     Ni1023   1.900       .  S
O1007      C1013   1.266       .  A
O1008      C1013   1.273       .  A
C1009      C1096   1.435       .  S
O1010      C1012   1.269       .  A
O1011     Ni1022   1.935       .  S
C1012      O1018   1.272       .  A
C1012      C1090   1.427       .  S
C1013      C1078   1.465       .  S
H1014      O1015   0.966       .  S
O1015     Ni1023   1.919       .  S
O1015     Ni1017   1.912       .  S
O1015     Ni1022   1.925       .  S
O1016     Ni1017   1.931       .  S
Ni1017     O1021   1.900       .  S
Ni1017     O1019   1.900       .  S
O1018     Ni1023   1.931       .  S
C1020      O1021   1.265       .  A
C1020      C1094   1.434       .  S
O1025     Ni1033   1.918   1_556  S
O1025      C1035   1.281       .  A
O1026     Ni1217   1.917   1_545  S
O1026      C1036   1.281       .  A
O1027     Ni1217   1.920       .  S
O1027      C1037   1.280       .  A
O1028     Ni1033   1.929   1_556  S
O1028      C1038   1.282       .  A
O1030     Ni1034   1.929       .  S
O1031     Ni1034   1.918       .  S
O1032     Ni1402   1.917       .  S
Ni1033     O1210   1.917       .  S
Ni1033     O1211   1.920       .  S
Ni1034     O1400   1.917   1_545  S
O1039     Ni1415   1.917   1_545  S
O1040     Ni1047   1.918       .  S
O1041     Ni1047   1.929       .  S
O1042     Ni1047   1.920       .  S
O1043     Ni1048   1.929       .  S
O1043      C1052   1.282   1_545  A
O1044     Ni1416   1.920       .  S
O1044      C1051   1.280       .  A
O1045     Ni1416   1.917       .  S
O1045      C1050   1.281       .  A
O1046     Ni1048   1.918       .  S
O1046      C1049   1.281   1_655  A
Ni1047     O1407   1.917       .  S
Ni1048     O1412   1.920       .  S
Ni1048     O1413   1.917   1_545  S
C1051      C1087   1.444       .  S
C1052      C1086   1.444       .  S
O1053     Ni1429   1.917   1_545  S
O1054     Ni1061   1.918   1_556  S
O1054      C1064   1.281       .  A
O1055     Ni1061   1.929   1_556  S
O1055      C1065   1.282       .  A
O1056      C1066   1.280       .  A
O1057     Ni1062   1.929       .  S
O1057      C1434   1.282   1_545  A
O1058     Ni1246   1.920       .  S
O1058      C1065   1.280       .  A
O1059     Ni1430   1.917       .  S
O1060     Ni1062   1.918       .  S
O1060      C1063   1.281       .  A
Ni1061     O1421   1.917       .  S
Ni1061    Ni1246   2.392   1_554  S
Ni1062     O1242   1.920       .  S
Ni1062     O1427   1.917   1_545  S
Ni1062    Ni1245   2.392   1_545  S
C1065      C1081   1.444       .  S
C1066      O1425   1.282       .  A
C1066      C1083   1.444       .  S
O1067     Ni1075   1.918       .  S
O1067      C1077   1.281       .  A
O1068     Ni1443   1.917   1_545  S
O1068      C1078   1.281       .  A
O1069     Ni1075   1.920       .  S
O1069      C1447   1.280       .  A
O1070     Ni1075   1.929       .  S
O1070      C1080   1.282       .  A
O1071     Ni1076   1.920       .  S
O1071      C1448   1.280   1_545  A
O1072     Ni1076   1.929       .  S
O1072      C1079   1.282   1_545  A
O1073     Ni1076   1.918       .  S
O1073      C1078   1.281       .  A
O1074     Ni1444   1.917       .  S
O1074      C1077   1.281       .  A
Ni1075     O1436   1.917       .  S
Ni1075    Ni1444   2.392       .  S
Ni1076     O1442   1.917   1_545  S
Ni1076    Ni1443   2.392   1_545  S
C1079      O1437   1.280       .  A
C1079      C1450   1.444       .  S
C1080      O1439   1.280       .  A
C1080      C1084   1.444       .  S
C1081      C1082   1.211       .  T
C1082      C1447   1.444       .  S
C1083      C1084   1.211       .  T
C1085      C1454   1.211       .  T
C1086      C1453   1.211       .  T
C1087      C1456   1.211       .  T
C1088      C1455   1.211       .  T
C1089      C1090   1.201       .  T
C1091      C1092   1.201       .  T
C1093      C1094   1.205       .  T
C1095      C1096   1.206       .  T
C1097      C1098   1.205   1_554  T
C1099      C1100   1.206   1_554  T
C1103      C1104   1.201       .  T
O1105     Ni1111   1.928       .  S
O1105      C1126   1.269       .  A
O1106     Ni1129   1.901       .  S
O1106      C1299   1.265   1_554  A
O1107      H1130   0.966       .  S
O1107     Ni1295   1.924       .  S
O1107     Ni1123   1.918       .  S
C1108      O1125   1.266       .  A
C1108      C1219   1.465       .  S
O1109     Ni1128   1.928       .  S
O1109      C1115   1.269       .  A
O1110     Ni1128   1.904       .  S
O1110      C1112   1.269       .  A
Ni1111     O1114   1.935       .  S
Ni1111     O1116   1.904       .  S
Ni1111     O1291   1.924   1_554  S
C1112      C1286   1.426       .  S
O1113     Ni1129   1.900   1_556  S
O1113      C1119   1.266   1_656  A
C1115      O1290   1.265       .  A
C1115      C1282   1.434       .  S
O1116      C1118   1.269       .  A
O1117     Ni1128   1.935       .  S
C1118      C1288   1.427       .  S
H1120      O1121   0.966       .  S
O1121     Ni1129   1.919       .  S
O1121     Ni1312   1.925   1_554  S
O1122     Ni1123   1.931       .  S
Ni1123     O1127   1.901       .  S
Ni1123     O1125   1.900       .  S
O1124     Ni1129   1.931       .  S
C1126      O1311   1.265   1_554  A
C1126      C1467   1.435       .  S
O1127      C1310   1.265       .  A
Ni1128     O1305   1.925       .  S
O1131     Ni1137   1.928       .  S
O1131      C1152   1.269       .  A
O1132     Ni1155   1.900       .  S
O1132      C1141   1.265       .  A
O1133      H1156   0.966       .  S
O1133     Ni1137   1.924       .  S
O1133     Ni1149   1.918       .  S
C1134      O1151   1.266       .  A
O1135     Ni1154   1.928       .  S
O1135      C1141   1.269       .  A
O1136     Ni1154   1.904       .  S
O1136      C1138   1.269       .  A
Ni1137     O1140   1.935       .  S
Ni1137     O1142   1.904       .  S
O1139     Ni1155   1.900       .  S
O1139      C1145   1.266   1_655  A
C1141      C1277   1.434       .  S
O1142      C1144   1.269       .  A
O1143     Ni1154   1.935       .  S
C1144      C1285   1.426       .  S
C1145      C1233   1.465       .  S
H1146      O1147   0.966       .  S
O1147     Ni1155   1.919       .  S
O1147     Ni1154   1.925       .  S
O1148     Ni1149   1.931       .  S
Ni1149     O1153   1.901       .  S
Ni1149     O1151   1.900       .  S
O1150     Ni1155   1.931       .  S
C1152      O1153   1.265       .  A
C1152      C1279   1.435       .  S
O1157     Ni1163   1.928       .  S
O1157      C1362   1.269       .  A
O1158     Ni1181   1.901       .  S
O1158      C1351   1.265   1_554  A
O1159      H1182   0.966       .  S
O1159     Ni1347   1.924       .  S
O1159     Ni1365   1.912       .  S
O1159     Ni1175   1.918       .  S
C1160      O1177   1.266       .  A
C1160      O1169   1.273       .  A
C1160      C1248   1.465       .  S
O1161     Ni1180   1.928       .  S
O1161      C1167   1.269       .  A
O1162     Ni1180   1.904       .  S
O1162      C1164   1.269       .  A
Ni1163     O1166   1.935       .  S
Ni1163     O1168   1.904       .  S
Ni1163     O1343   1.924   1_554  S
C1164      O1174   1.272       .  A
C1164      C1273   1.427       .  S
O1165     Ni1181   1.900   1_556  S
O1165      C1171   1.266   1_556  A
O1166      C1171   1.272       .  A
C1167      O1342   1.265       .  A
C1167      C1284   1.435       .  S
O1168      C1170   1.269       .  A
O1169     Ni1180   1.935       .  S
C1170      O1176   1.272       .  A
C1170      C1276   1.426       .  S
C1171      C1247   1.465       .  S
H1172      O1173   0.966       .  S
O1173     Ni1181   1.919       .  S
O1173     Ni1359   1.912   1_554  S
O1173     Ni1364   1.924   1_554  S
O1174     Ni1175   1.931       .  S
Ni1175     O1179   1.901       .  S
Ni1175     O1177   1.900       .  S
Ni1175     O1357   1.912       .  S
O1176     Ni1181   1.931       .  S
C1178      O1341   1.269       .  A
C1178      O1179   1.265       .  A
C1178      C1281   1.434       .  S
Ni1180     O1357   1.925       .  S
Ni1181     O1343   1.912   1_554  S
O1183     Ni1189   1.928       .  S
O1183      C1204   1.269       .  A
O1184     Ni1207   1.901       .  S
O1184      C1193   1.265       .  A
O1185      H1208   0.966       .  S
O1185     Ni1189   1.924       .  S
O1185     Ni1207   1.912       .  S
O1185     Ni1201   1.918       .  S
C1186      O1203   1.266       .  A
C1186      O1195   1.272       .  A
C1186      C1261   1.465       .  S
O1187     Ni1206   1.928       .  S
O1187      C1193   1.269       .  A
O1188     Ni1206   1.904       .  S
O1188      C1190   1.269       .  A
Ni1189     O1192   1.935       .  S
Ni1189     O1194   1.904       .  S
C1190      O1200   1.272       .  A
C1190      C1275   1.426       .  S
O1191     Ni1207   1.899       .  S
O1191      C1197   1.266       .  A
O1192      C1197   1.273       .  A
C1193      C1280   1.435       .  S
O1194      C1196   1.269       .  A
O1195     Ni1206   1.935       .  S
C1196      O1202   1.272       .  A
C1196      C1274   1.427       .  S
C1197      C1262   1.465       .  S
H1198      O1199   0.966       .  S
O1199     Ni1207   1.919       .  S
O1199     Ni1201   1.912       .  S
O1199     Ni1206   1.925       .  S
O1200     Ni1201   1.931       .  S
Ni1201     O1205   1.900       .  S
Ni1201     O1203   1.900       .  S
O1202     Ni1207   1.931       .  S
C1204      O1205   1.265       .  A
C1204      C1278   1.434       .  S
O1209     Ni1217   1.918       .  S
O1209      C1219   1.281       .  A
O1210      C1220   1.281       .  A
O1211      C1221   1.280       .  A
O1212     Ni1217   1.929       .  S
O1212      C1222   1.282       .  A
O1213     Ni1402   1.920       .  S
O1214     Ni1218   1.929   1_554  S
O1215     Ni1218   1.918   1_554  S
Ni1218     O1397   1.920       .  S
O1224     Ni1231   1.918       .  S
O1225     Ni1231   1.929       .  S
O1226     Ni1231   1.920       .  S
O1227     Ni1232   1.929       .  S
O1227      C1236   1.282       .  A
O1228      C1235   1.280   1_545  A
O1229      C1234   1.281       .  A
O1230     Ni1232   1.918       .  S
O1230      C1233   1.281   1_655  A
C1235      C1271   1.444       .  S
C1236      C1270   1.444       .  S
O1237      C1431   1.281       .  A
O1238     Ni1245   1.918       .  S
O1238      C1248   1.281       .  A
O1239     Ni1245   1.929       .  S
O1239      C1249   1.282       .  A
O1240     Ni1429   1.920       .  S
O1240      C1250   1.280       .  A
O1241     Ni1246   1.929   1_554  S
O1242      C1249   1.280   1_545  A
O1243      C1432   1.281       .  A
O1244     Ni1246   1.918   1_554  S
O1244      C1247   1.281       .  A
Ni1245     O1424   1.920       .  S
C1247      O1421   1.281       .  A
C1248      O1427   1.281       .  A
C1249      C1265   1.444       .  S
C1250      C1267   1.444       .  S
O1251     Ni1259   1.918       .  S
O1251      C1261   1.281       .  A
O1252      C1262   1.281       .  A
O1253     Ni1259   1.920       .  S
O1254     Ni1259   1.929       .  S
O1254      C1264   1.282       .  A
O1255     Ni1260   1.920       .  S
O1256     Ni1260   1.929       .  S
O1256      C1263   1.282       .  A
O1257     Ni1260   1.918       .  S
O1257      C1262   1.281       .  A
O1258      C1261   1.281       .  A
C1264      C1268   1.444       .  S
C1265      C1266   1.211       .  T
C1267      C1268   1.211       .  T
C1273      C1274   1.201       .  T
C1275      C1276   1.201       .  T
C1277      C1278   1.205       .  T
C1279      C1280   1.206       .  T
C1281      C1282   1.205       .  T
C1283      C1310   1.435       .  S
C1283      C1284   1.206       .  T
C1287      C1288   1.201       .  T
O1289     Ni1295   1.928       .  S
O1289      C1310   1.269       .  A
O1290     Ni1313   1.901       .  S
O1291      H1314   0.966       .  S
O1291     Ni1307   1.918       .  S
C1292      O1309   1.266   1_556  A
C1292      C1403   1.465       .  S
O1293     Ni1312   1.928       .  S
O1293      C1299   1.269       .  A
O1294     Ni1312   1.904       .  S
O1294      C1296   1.269       .  A
Ni1295     O1298   1.935       .  S
Ni1295     O1300   1.904       .  S
C1296      C1470   1.426       .  S
O1297     Ni1313   1.899       .  S
O1297      C1303   1.266   1_655  A
C1299      C1466   1.434       .  S
O1300      C1302   1.269       .  A
O1301     Ni1312   1.935       .  S
C1302      C1472   1.427       .  S
H1304      O1305   0.966       .  S
O1305     Ni1313   1.919       .  S
O1306     Ni1307   1.931       .  S
Ni1307     O1311   1.901       .  S
Ni1307     O1309   1.900   1_556  S
O1308     Ni1313   1.931       .  S
O1315     Ni1321   1.928       .  S
O1315      C1336   1.269       .  A
O1316     Ni1339   1.900       .  S
O1316      C1325   1.265       .  A
O1317      H1340   0.966       .  S
O1317     Ni1321   1.924       .  S
O1317     Ni1333   1.918       .  S
C1318      O1335   1.266       .  A
O1319     Ni1338   1.928       .  S
O1319      C1325   1.269       .  A
O1320     Ni1338   1.904       .  S
O1320      C1322   1.269       .  A
Ni1321     O1324   1.935       .  S
Ni1321     O1326   1.904       .  S
O1323     Ni1339   1.899       .  S
O1323      C1329   1.266   1_655  A
C1325      C1461   1.434       .  S
O1326      C1328   1.269       .  A
O1327     Ni1338   1.935       .  S
C1328      C1469   1.426       .  S
C1329      C1417   1.465       .  S
H1330      O1331   0.966       .  S
O1331     Ni1339   1.919       .  S
O1331     Ni1338   1.925       .  S
O1332     Ni1333   1.931       .  S
Ni1333     O1337   1.901       .  S
Ni1333     O1335   1.900       .  S
O1334     Ni1339   1.931       .  S
C1336      O1337   1.265       .  A
C1336      C1463   1.435       .  S
O1341     Ni1347   1.928       .  S
O1342     Ni1365   1.901       .  S
O1343      H1366   0.966       .  S
O1343     Ni1359   1.918       .  S
C1344      O1361   1.266   1_556  A
C1344      O1353   1.273       .  A
C1344      C1432   1.465       .  S
O1345     Ni1364   1.928       .  S
O1345      C1351   1.269       .  A
O1346     Ni1364   1.904       .  S
O1346      C1348   1.269       .  A
Ni1347     O1350   1.935       .  S
Ni1347     O1352   1.904       .  S
C1348      O1358   1.272       .  A
C1348      C1457   1.427       .  S
O1349     Ni1365   1.900       .  S
O1349      C1355   1.266       .  A
O1350      C1355   1.272       .  A
C1351      C1468   1.435       .  S
O1352      C1354   1.269       .  A
O1353     Ni1364   1.935       .  S
C1354      O1360   1.272       .  A
C1354      C1460   1.426       .  S
C1355      C1431   1.465       .  S
H1356      O1357   0.966       .  S
O1357     Ni1365   1.919       .  S
O1358     Ni1359   1.931       .  S
Ni1359     O1363   1.901       .  S
Ni1359     O1361   1.900   1_556  S
O1360     Ni1365   1.931       .  S
C1362      O1363   1.265   1_554  A
C1362      C1465   1.434       .  S
O1367     Ni1373   1.928       .  S
O1367      C1388   1.269       .  A
O1368     Ni1391   1.901       .  S
O1368      C1377   1.265       .  A
O1369      H1392   0.966       .  S
O1369     Ni1373   1.924       .  S
O1369     Ni1391   1.912       .  S
O1369     Ni1385   1.918       .  S
C1370      O1387   1.266       .  A
C1370      O1379   1.272       .  A
C1370      C1445   1.465       .  S
O1371     Ni1390   1.928       .  S
O1371      C1377   1.269       .  A
O1372     Ni1390   1.904       .  S
O1372      C1374   1.269       .  A
Ni1373     O1376   1.935       .  S
Ni1373     O1378   1.904       .  S
C1374      O1384   1.272       .  A
C1374      C1459   1.426       .  S
O1375     Ni1391   1.900       .  S
O1375      C1381   1.266       .  A
O1376      C1381   1.273       .  A
C1377      C1464   1.435       .  S
O1378      C1380   1.269       .  A
O1379     Ni1390   1.935       .  S
C1380      O1386   1.272       .  A
C1380      C1458   1.427       .  S
C1381      C1446   1.465       .  S
H1382      O1383   0.966       .  S
O1383     Ni1391   1.919       .  S
O1383     Ni1385   1.912       .  S
O1383     Ni1390   1.925       .  S
O1384     Ni1385   1.931       .  S
Ni1385     O1389   1.900       .  S
Ni1385     O1387   1.900       .  S
O1386     Ni1391   1.931       .  S
C1388      O1389   1.265       .  A
C1388      C1462   1.434       .  S
O1393     Ni1401   1.918   1_556  S
O1393      C1403   1.281       .  A
O1394      C1404   1.281       .  A
O1395      C1405   1.280       .  A
O1396     Ni1401   1.929   1_556  S
O1396      C1406   1.282       .  A
O1398     Ni1402   1.929       .  S
O1399     Ni1402   1.918       .  S
O1408     Ni1415   1.918       .  S
O1409     Ni1415   1.929       .  S
O1410     Ni1415   1.920       .  S
O1411     Ni1416   1.929       .  S
O1411      C1420   1.282       .  A
O1412      C1419   1.280   1_545  A
O1413      C1418   1.281       .  A
O1414     Ni1416   1.918       .  S
O1414      C1417   1.281   1_655  A
C1419      C1455   1.444       .  S
C1420      C1454   1.444       .  S
O1422     Ni1429   1.918   1_556  S
O1422      C1432   1.281       .  A
O1423     Ni1429   1.929   1_556  S
O1423      C1433   1.282       .  A
O1424      C1434   1.280       .  A
O1425     Ni1430   1.929       .  S
O1426      C1433   1.280   1_545  A
O1428     Ni1430   1.918       .  S
O1428      C1431   1.281       .  A
C1433      C1449   1.444       .  S
C1434      C1451   1.444       .  S
O1435     Ni1443   1.918       .  S
O1435      C1445   1.281       .  A
O1436      C1446   1.281       .  A
O1437     Ni1443   1.920       .  S
O1438     Ni1443   1.929       .  S
O1438      C1448   1.282       .  A
O1439     Ni1444   1.920       .  S
O1440     Ni1444   1.929       .  S
O1440      C1447   1.282       .  A
O1441     Ni1444   1.918       .  S
O1441      C1446   1.281       .  A
O1442      C1445   1.281       .  A
C1448      C1452   1.444       .  S
C1449      C1450   1.211       .  T
C1451      C1452   1.211       .  T
C1457      C1458   1.201       .  T
C1459      C1460   1.201       .  T
C1461      C1462   1.205       .  T
C1463      C1464   1.206       .  T
C1465      C1466   1.205   1_554  T
C1467      C1468   1.206   1_554  T
C1471      C1472   1.201       .  T
