geometry optimzed in LAMMPS
_audit_creation_date              2020-11-30 
_audit_creation_method            'lammps2cif' 
_symmetry_space_group_name_H-M    'P1' 
_symmetry_Int_Tables_number       1 
_symmetry_cell_setting            triclinic 
loop_ 
_symmetry_equiv_pos_as_xyz 
  x,y,z 
_cell_length_a                    24.71337854 
_cell_length_b                    24.747807453325585 
_cell_length_c                    109.57110638301391 
_cell_angle_alpha                 89.83427585753525 
_cell_angle_beta                  89.57702539383382 
_cell_angle_gamma                 90.25079571844712 
loop_ 
_atom_site_label 
_atom_site_type_symbol 
_atom_site_fract_x 
_atom_site_fract_y 
_atom_site_fract_z 
_atom_site_charge 
C1          C  0.71924903  0.57295352  0.82087307     0.85700
C2          C  0.72988557  0.63296043  0.82230686    -0.54500
C3          C  0.70197835  0.65670994  0.83145598     0.08700
C4          C  0.66679868  0.61665424  0.83907701     0.19600
C5          C  0.73092583  0.54678310  0.83347640    -0.55200
C6          C  0.70443811  0.57062848  0.84300784     0.08800
C7          C  0.65664536  0.56826147  0.82012071    -0.54800
C8          C  0.62807339  0.58960853  0.82984650     0.09300
H9          H  0.75469818  0.65602164  0.81589860     0.13800
H10         H  0.64877057  0.63459476  0.84727251    -0.00400
H11         H  0.75557177  0.51106464  0.83472632     0.14200
H12         H  0.63703276  0.54931950  0.81247569     0.13900
C13         C  0.30824990  0.57685751  0.81745542     0.85700
C14         C  0.28386247  0.56980597  0.83046658    -0.54500
C15         C  0.30917488  0.59970917  0.83923924     0.08700
C16         C  0.35753838  0.63202827  0.83432414     0.19600
C17         C  0.31111599  0.63715522  0.81497150    -0.55200
C18         C  0.33543155  0.66631709  0.82372175     0.08800
C19         C  0.36749958  0.55975088  0.81960394    -0.54800
C20         C  0.39408880  0.58746993  0.82870080     0.09300
H21         H  0.25331593  0.53990003  0.83282227     0.13800
H22         H  0.37583134  0.65837693  0.84121012    -0.00400
H23         H  0.29404980  0.65572433  0.80686780     0.14200
H24         H  0.38570211  0.52792482  0.81433969     0.13900
C25         C  0.73249789  0.98014902  0.82253068     0.85700
C26         C  0.67251051  0.99498067  0.82124209    -0.54500
C27         C  0.63750362  0.96701952  0.82859555     0.08700
C28         C  0.66644861  0.92672457  0.83706821     0.19600
C29         C  0.74410006  0.98792093  0.83639634    -0.55200
C30         C  0.70871894  0.96067945  0.84410663     0.08800
C31         C  0.73614087  0.91846641  0.82153535    -0.54800
C32         C  0.70108480  0.89045207  0.82871808     0.09300
H33         H  0.65917401  0.02641568  0.81503867     0.13800
H34         H  0.63771145  0.90362748  0.84289480    -0.00400
H35         H  0.77920371  0.00863095  0.83995509     0.14200
H36         H  0.76624852  0.89813556  0.81594748     0.13900
C37         C  0.30851008  0.99245433  0.82034942     0.85700
C38         C  0.30549708  0.93126201  0.81836758    -0.54500
C39         C  0.33623545  0.90073791  0.82590038     0.08700
C40         C  0.36707602  0.93479929  0.83537799     0.19600
C41         C  0.29111184  0.99692550  0.83399411    -0.55200
C42         C  0.32259661  0.96784668  0.84193989     0.08800
C43         C  0.36915984  0.00661573  0.82015709    -0.54800
C44         C  0.40039692  0.97621907  0.82777975     0.09300
H45         H  0.27974687  0.91304394  0.81154516     0.13800
H46         H  0.39164012  0.91019418  0.84172759    -0.00400
H47         H  0.25535292  0.01785662  0.83717008     0.14200
H48         H  0.38612581  0.03743592  0.81416416     0.13900
C49         C  0.69746323  0.55594112  0.91703943     0.85700
C50         C  0.63558765  0.55001667  0.91824958    -0.54500
C51         C  0.60720460  0.57356405  0.90908790     0.08700
C52         C  0.64374915  0.60213792  0.89945644     0.19600
C53         C  0.71207479  0.53519583  0.90421853    -0.55200
C54         C  0.68424100  0.55943392  0.89502463     0.08800
C55         C  0.70464615  0.61829011  0.91618652    -0.54800
C56         C  0.67871171  0.64317051  0.90660522     0.09300
H57         H  0.61579362  0.53008073  0.92592517     0.13800
H58         H  0.62059922  0.61778105  0.89177183    -0.00400
H59         H  0.74275633  0.50476200  0.90255740     0.14200
H60         H  0.72557462  0.64172919  0.92302020     0.13900
C61         C  0.28144848  0.56225330  0.91356928     0.85700
C62         C  0.26707973  0.55555517  0.89986148    -0.54500
C63         C  0.29436841  0.59030654  0.89217247     0.08700
C64         C  0.33471320  0.62704977  0.89886729     0.19600
C65         C  0.34327593  0.55374338  0.91329354    -0.55200
C66         C  0.37217957  0.58699986  0.90558641     0.08800
C67         C  0.27349718  0.62183826  0.91636408    -0.54800
C68         C  0.30104793  0.65578822  0.90893423     0.09300
H69         H  0.24119655  0.52394489  0.89634475     0.13800
H70         H  0.35511343  0.65476139  0.89243705    -0.00400
H71         H  0.36254578  0.52346032  0.91891758     0.14200
H72         H  0.24926737  0.63616926  0.92400943     0.13900
C73         C  0.70982241  0.96588738  0.91951271     0.85700
C74         C  0.70965606  0.90366844  0.92002147    -0.54500
C75         C  0.68287544  0.87843640  0.91068721     0.08700
C76         C  0.65644915  0.91920174  0.90188216     0.19600
C77         C  0.72976196  0.98118108  0.90645999    -0.55200
C78         C  0.70266148  0.95597373  0.89728291     0.08800
C79         C  0.64951863  0.98068961  0.91911109    -0.54800
C80         C  0.62106698  0.95513440  0.91019053     0.09300
H81         H  0.72831687  0.88175101  0.92745429     0.13800
H82         H  0.63462225  0.90103366  0.89413184    -0.00400
H83         H  0.76048658  0.01114718  0.90444307     0.14200
H84         H  0.63012492  0.00712576  0.92570084     0.13900
C85         C  0.29193931  0.97973502  0.91705313     0.85700
C86         C  0.35338017  0.99070541  0.91838494    -0.54500
C87         C  0.38572472  0.96010339  0.91097081     0.08700
C88         C  0.35352252  0.92153254  0.90265591     0.19600
C89         C  0.28280870  0.98932431  0.90322004    -0.55200
C90         C  0.31432483  0.95862285  0.89557340     0.08800
C91         C  0.28521945  0.91884163  0.91874270    -0.54800
C92         C  0.31673835  0.88801338  0.91135292     0.09300
H93         H  0.36987336  0.02013082  0.92469545     0.13800
H94         H  0.38022033  0.89682729  0.89672766    -0.00400
H95         H  0.25587309  0.01934752  0.89961853     0.14200
H96         H  0.25681405  0.90127332  0.92526793     0.13900
In97       In  0.38240419  0.91704520  0.47315306     1.36900
C98         C  0.48909240  0.91718398  0.47426967     0.76800
O99         O  0.37062203  0.00740413  0.47565947    -0.61600
O100        O  0.36680844  0.95845744  0.49147616    -0.52500
C101        C  0.32561222  0.94577448  0.45400861     0.69500
O102        O  0.37659877  0.94879231  0.45434579    -0.47400
C103        C  0.36682875  0.80890544  0.47368868     0.74200
O104        O  0.46414584  0.92836257  0.46460398    -0.59200
O105        O  0.34547598  0.83911469  0.48172949    -0.49300
O106        O  0.45955708  0.90616781  0.48336194    -0.55700
C107        C  0.36728044  0.00593374  0.48709111     0.84400
O108        O  0.30355852  0.92469494  0.46337975    -0.57600
O109        O  0.39250012  0.83434281  0.46552718    -0.60900
In110      In  0.38617869  0.14469846  0.50847919     1.36900
C111        C  0.49326509  0.14940594  0.50928057     0.76800
O112        O  0.39116094  0.05511515  0.50501151    -0.61600
O113        O  0.35518976  0.10223591  0.49117395    -0.52500
C114        C  0.33520856  0.10504533  0.52761811     0.69500
O115        O  0.38513266  0.11591659  0.52767939    -0.47400
C116        C  0.36154532  0.25183474  0.50715205     0.74200
O117        O  0.46378573  0.14879298  0.51866261    -0.59200
O118        O  0.37106403  0.22397091  0.49772856    -0.49300
O119        O  0.46815167  0.14961324  0.49932892    -0.55700
C120        C  0.36985947  0.05560018  0.49465318     0.84400
O121        O  0.31034926  0.11723655  0.51790384    -0.57600
O122        O  0.35888494  0.22402148  0.51674885    -0.60900
In123      In  0.38448669  0.64058451  0.47320666     1.36900
C124        C  0.49147690  0.63668006  0.47395703     0.76800
O125        O  0.39181532  0.72382405  0.46540061    -0.61600
O126        O  0.34619801  0.71789595  0.48169323    -0.52500
C127        C  0.33872111  0.59977344  0.45350372     0.69500
O128        O  0.38940925  0.60010007  0.45502402    -0.47400
C129        C  0.36786762  0.55821989  0.48911086     0.74200
O130        O  0.46560353  0.62448203  0.46445226    -0.59200
O131        O  0.39740680  0.59850717  0.49129004    -0.49300
O132        O  0.46274974  0.65074949  0.48291808    -0.55700
C133        C  0.36679564  0.74872030  0.47364259     0.84400
O134        O  0.31145763  0.62303195  0.46179587    -0.57600
O135        O  0.34003435  0.56339593  0.47962952    -0.60900
In136      In  0.38554232  0.41870767  0.51022828     1.36900
C137        C  0.49213079  0.40910635  0.51030139     0.76800
O138        O  0.35690899  0.33737529  0.51747435    -0.61600
O139        O  0.37076243  0.34255796  0.49852314    -0.52500
C140        C  0.34305376  0.46139441  0.53025811     0.69500
O141        O  0.39110965  0.44473256  0.52970789    -0.47400
C142        C  0.37085669  0.50812137  0.49651801     0.74200
O143        O  0.46425389  0.41374051  0.51988878    -0.59200
O144        O  0.34140886  0.46645933  0.49517313    -0.49300
O145        O  0.46548354  0.40799835  0.50053358    -0.55700
C146        C  0.36090534  0.31213889  0.50754969     0.84400
O147        O  0.31507674  0.45236902  0.52082534    -0.57600
O148        O  0.40670995  0.50296610  0.50449370    -0.60900
In149      In  0.65487635  0.91425609  0.47588163     1.36900
C150        C  0.54792400  0.91659360  0.47487661     0.76800
O151        O  0.64686830  0.83075762  0.46864328    -0.61600
O152        O  0.69342880  0.83755794  0.48463692    -0.52500
C153        C  0.70069348  0.94987321  0.45551080     0.69500
O154        O  0.65262187  0.96089373  0.45855171    -0.47400
C155        C  0.67390603  0.99671576  0.49154432     0.74200
O156        O  0.57754163  0.92851534  0.46586439    -0.59200
O157        O  0.64475497  0.95632655  0.49412118    -0.49300
O158        O  0.57286007  0.90379624  0.48442972    -0.55700
C159        C  0.67287708  0.80638540  0.47674715     0.84400
O160        O  0.72523666  0.91918921  0.46290542    -0.57600
O161        O  0.69970225  0.99172948  0.48168410    -0.60900
In162      In  0.65797630  0.13808495  0.51201580     1.36900
C163        C  0.55202374  0.14752662  0.51007236     0.76800
O164        O  0.66954881  0.21980586  0.52041036    -0.61600
O165        O  0.68372000  0.21523785  0.50140147    -0.52500
C166        C  0.70334541  0.09978504  0.53194178     0.69500
O167        O  0.65317608  0.10746722  0.53100445    -0.47400
C168        C  0.67253163  0.04699185  0.49892106     0.74200
O169        O  0.57547225  0.14206063  0.52015827    -0.59200
O170        O  0.69973645  0.08963900  0.49668139    -0.49300
O171        O  0.58283712  0.14925075  0.50085214    -0.55700
C172        C  0.67908293  0.24533705  0.51068437     0.84400
O173        O  0.73158755  0.11531145  0.52287742    -0.57600
O174        O  0.63980734  0.05155015  0.50768571    -0.60900
In175      In  0.65737542  0.63821515  0.47597787     1.36900
C176        C  0.55039064  0.63555123  0.47465392     0.76800
O177        O  0.69761649  0.55879397  0.48138878    -0.61600
O178        O  0.64676590  0.59609588  0.49431372    -0.52500
C179        C  0.70726046  0.60046704  0.45650892     0.69500
O180        O  0.65689126  0.59583262  0.45829184    -0.47400
C181        C  0.67409271  0.74630573  0.47670571     0.74200
O182        O  0.58026334  0.62404911  0.46568072    -0.59200
O183        O  0.69385094  0.71576722  0.48482908    -0.49300
O184        O  0.57512934  0.64703668  0.48431969    -0.55700
C185        C  0.67308709  0.55449417  0.49139701     0.84400
O186        O  0.73245281  0.62712958  0.46457831    -0.57600
O187        O  0.65073036  0.72114712  0.46831666    -0.60900
In188      In  0.65765580  0.41269717  0.51157582     1.36900
C189        C  0.55106637  0.40767630  0.51063508     0.76800
O190        O  0.64074080  0.49980802  0.50784580    -0.61600
O191        O  0.69489198  0.46036348  0.49565882    -0.52500
C192        C  0.71374606  0.45114214  0.52988696     0.69500
O193        O  0.66403765  0.43999268  0.53083707    -0.47400
C194        C  0.67847339  0.30551518  0.51055890     0.74200
O195        O  0.57651101  0.41378733  0.52046406    -0.59200
O196        O  0.68209742  0.33518540  0.50113427    -0.49300
O197        O  0.58017329  0.40236375  0.50120818    -0.55700
C198        C  0.67070670  0.50377451  0.49855907     0.84400
O199        O  0.73580572  0.43902883  0.51980607    -0.57600
O200        O  0.66890856  0.33133444  0.52020629    -0.60900
In201      In  0.37540520  0.14416921  0.72539634     1.36900
C202        C  0.37419595  0.25089784  0.72562085     0.76800
O203        O  0.28549954  0.12800518  0.72858065    -0.61600
O204        O  0.33524881  0.13065008  0.74411911    -0.52500
C205        C  0.34430415  0.09943973  0.70487705     0.69500
O206        O  0.35134959  0.14938639  0.70626708    -0.47400
C207        C  0.48423280  0.12957596  0.72580139     0.74200
O208        O  0.36092287  0.22344314  0.71649283    -0.59200
O209        O  0.45346640  0.10217066  0.73281837    -0.49300
O210        O  0.38584292  0.22386540  0.73501476    -0.55700
C211        C  0.28753487  0.12745978  0.74002012     0.84400
O212        O  0.35758684  0.07029666  0.71392607    -0.57600
O213        O  0.45903530  0.16003308  0.71869496    -0.60900
In214      In  0.14963165  0.14970660  0.76188531     1.36900
C215        C  0.14994573  0.25581277  0.75992397     0.76800
O216        O  0.24005380  0.14335480  0.75881154    -0.61600
O217        O  0.19024378  0.12166383  0.74401985    -0.52500
C218        C  0.18273632  0.09963544  0.78177913     0.69500
O219        O  0.18557708  0.15012113  0.78040569    -0.47400
C220        C  0.04098032  0.13540692  0.76145483     0.74200
O221        O  0.15608240  0.23146331  0.76989639    -0.59200
O222        O  0.07114622  0.11506098  0.75326661    -0.49300
O223        O  0.14339895  0.22592938  0.75076045    -0.55700
C224        C  0.23804550  0.12917179  0.74783879     0.84400
O225        O  0.15856473  0.07486252  0.77326722    -0.57600
O226        O  0.06665349  0.15883794  0.76978729    -0.60900
In227      In  0.65335934  0.14803871  0.72452193     1.36900
C228        C  0.65949226  0.25554636  0.72439074     0.76800
O229        O  0.56874206  0.16243683  0.71842921    -0.61600
O230        O  0.57627304  0.10489748  0.73252121    -0.52500
C231        C  0.68467655  0.09492045  0.70470917     0.69500
O232        O  0.67557423  0.14491881  0.70494080    -0.47400
C233        C  0.73820081  0.13305343  0.73966400     0.74200
O234        O  0.66992715  0.22728435  0.71515132    -0.59200
O235        O  0.68963655  0.13414620  0.74343878    -0.49300
O236        O  0.64642564  0.22897391  0.73380617    -0.55700
C237        C  0.54457542  0.13095216  0.72565056     0.84400
O238        O  0.67383540  0.07043382  0.71460539    -0.57600
O239        O  0.74276000  0.13575546  0.72824699    -0.60900
In240      In  0.87232412  0.15090989  0.76246328     1.36900
C241        C  0.87375879  0.25772417  0.76166284     0.76800
O242        O  0.95576488  0.16151352  0.76975460    -0.61600
O243        O  0.94998972  0.11560059  0.75355357    -0.52500
C244        C  0.84362184  0.09348857  0.78197542     0.69500
O245        O  0.83710242  0.14385406  0.78118893    -0.47400
C246        C  0.78596615  0.13378429  0.74784023     0.74200
O247        O  0.86511884  0.23161204  0.77136372    -0.59200
O248        O  0.83427159  0.12690123  0.74422134    -0.49300
O249        O  0.88121957  0.22931804  0.75228255    -0.55700
C250        C  0.98072563  0.13631447  0.76151684     0.84400
O251        O  0.86671602  0.07246529  0.77279871    -0.57600
O252        O  0.78208082  0.14576362  0.75894881    -0.60900
In253      In  0.65992735  0.42199515  0.72329200     1.36900
C254        C  0.66122583  0.31469544  0.72408039     0.76800
O255        O  0.74967747  0.42673319  0.72687501    -0.61600
O256        O  0.69662178  0.44201610  0.74175828    -0.52500
C257        C  0.68974016  0.48711152  0.70509061     0.69500
O258        O  0.68878736  0.43626968  0.70416822    -0.47400
C259        C  0.55120888  0.43276519  0.72397210     0.74200
O260        O  0.67291409  0.34106155  0.71453486    -0.59200
O261        O  0.58082203  0.45363289  0.73212635    -0.49300
O262        O  0.65002905  0.34312671  0.73326808    -0.55700
C263        C  0.74506655  0.43656886  0.73808866     0.84400
O264        O  0.67289745  0.50507949  0.71523377    -0.57600
O265        O  0.57738624  0.41017783  0.71553121    -0.60900
In266      In  0.87746814  0.42362817  0.76119842     1.36900
C267        C  0.87529880  0.31656475  0.76140566     0.76800
O268        O  0.78790873  0.42408494  0.75738362    -0.61600
O269        O  0.84056400  0.44522006  0.74278025    -0.52500
C270        C  0.83970853  0.48119130  0.77969688     0.69500
O271        O  0.84949793  0.43139931  0.78045066    -0.47400
C272        C  0.98623933  0.44058999  0.75969888     0.74200
O273        O  0.86844657  0.34439830  0.77086550    -0.59200
O274        O  0.95497915  0.45430166  0.75114467    -0.49300
O275        O  0.88367146  0.34330197  0.75178443    -0.55700
C276        C  0.79230764  0.43666979  0.74630348     0.84400
O277        O  0.85312423  0.50310283  0.76964264    -0.57600
O278        O  0.96153954  0.42297727  0.76897198    -0.60900
In279      In  0.38270599  0.41585427  0.72356361     1.36900
C280        C  0.37725886  0.30959969  0.72503166     0.76800
O281        O  0.46604764  0.40550576  0.71590799    -0.61600
O282        O  0.46036833  0.45106909  0.73220859    -0.52500
C283        C  0.35382475  0.47789480  0.70520516     0.69500
O284        O  0.35528095  0.42700401  0.70437887    -0.47400
C285        C  0.29364700  0.43114891  0.73733606     0.74200
O286        O  0.36817861  0.33514325  0.71528773    -0.59200
O287        O  0.29237912  0.42479433  0.72597816    -0.49300
O288        O  0.39004672  0.33830388  0.73404607    -0.55700
C289        C  0.49101237  0.43082204  0.72409524     0.84400
O290        O  0.37158280  0.49702524  0.71512433    -0.57600
O291        O  0.34099697  0.43344627  0.74171784    -0.60900
In292      In  0.15465071  0.42063639  0.75890066     1.36900
C293        C  0.15087612  0.31440493  0.75927382     0.76800
O294        O  0.07343244  0.42396669  0.76812076    -0.61600
O295        O  0.07553821  0.45048160  0.74978221    -0.52500
C296        C  0.19416992  0.47908911  0.77662021     0.69500
O297        O  0.18462065  0.42927600  0.77768351    -0.47400
C298        C  0.24377831  0.43079538  0.74488183     0.74200
O299        O  0.15914462  0.34244587  0.76863055    -0.59200
O300        O  0.24398469  0.41313830  0.75563754    -0.49300
O301        O  0.14393914  0.34063453  0.74952814    -0.55700
C302        C  0.04660051  0.43992407  0.75911072     0.84400
O303        O  0.18001403  0.50060808  0.76663679    -0.57600
O304        O  0.19733278  0.44442335  0.74106406    -0.60900
C305        C  0.80607787  0.59001688  0.66485895     0.85700
C306        C  0.80241895  0.65092863  0.66198561    -0.54500
C307        C  0.83763893  0.67020650  0.65320211     0.08700
C308        C  0.87526966  0.62501396  0.64845001     0.19600
C309        C  0.80167727  0.56165438  0.65229079    -0.55200
C310        C  0.83666556  0.58126341  0.64359953     0.08800
C311        C  0.86579635  0.58069546  0.66819271    -0.54800
C312        C  0.90222141  0.59996754  0.65989513     0.09300
H313        H  0.77448953  0.67692596  0.66687403     0.13800
H314        H  0.90418810  0.63656449  0.64129952    -0.00400
H315        H  0.77533987  0.52783348  0.65034518     0.14200
H316        H  0.87844745  0.56176304  0.67665008     0.13900
C317        C  0.23272205  0.59481566  0.66760050     0.85700
C318        C  0.23890102  0.57549375  0.65427079    -0.54500
C319        C  0.20747541  0.60231288  0.64605662     0.08700
C320        C  0.16879829  0.64374337  0.65209834     0.19600
C321        C  0.24043535  0.65645371  0.66691899    -0.55200
C322        C  0.20653637  0.68282116  0.65909051     0.08800
C323        C  0.17158452  0.58575103  0.66996494    -0.54800
C324        C  0.13773518  0.61150440  0.66206751     0.09300
H325        H  0.26334126  0.54166107  0.65140061     0.13800
H326        H  0.14117840  0.66391053  0.64560424    -0.00400
H327        H  0.27020628  0.67754897  0.67239602     0.14200
H328        H  0.15623132  0.56024927  0.67728084     0.13900
C329        C  0.80134520  0.98830391  0.66497218     0.85700
C330        C  0.86036295  0.00155866  0.66819286    -0.54500
C331        C  0.89751137  0.98237201  0.66019727     0.08700
C332        C  0.87247878  0.94879550  0.64972571     0.19600
C333        C  0.79441057  0.00708663  0.65165011    -0.55200
C334        C  0.83089262  0.98577964  0.64360510     0.08800
C335        C  0.80227863  0.92525335  0.66427237    -0.54800
C336        C  0.83831791  0.90415351  0.65586278     0.09300
H337        H  0.87205406  0.02392183  0.67628315     0.13800
H338        H  0.90198571  0.93361986  0.64305453    -0.00400
H339        H  0.76296807  0.03496513  0.64893950     0.14200
H340        H  0.77832873  0.89885353  0.67004728     0.13900
C341        C  0.22700128  0.00925510  0.66419602     0.85700
C342        C  0.23436424  0.94770370  0.66379631    -0.54500
C343        C  0.19921240  0.92001619  0.65652563     0.08700
C344        C  0.16121396  0.95862060  0.64948279     0.19600
C345        C  0.23279008  0.02722531  0.65095830    -0.55200
C346        C  0.19975421  0.00050759  0.64312636     0.08800
C347        C  0.16607287  0.01523681  0.66747062    -0.54800
C348        C  0.13151755  0.98993702  0.65966041     0.09300
H349        H  0.26369492  0.92681765  0.66930098     0.13800
H350        H  0.13203726  0.93900462  0.64330677    -0.00400
H351        H  0.26390915  0.05535775  0.64787210     0.14200
H352        H  0.15132058  0.03650821  0.67547031     0.13900
C353        C  0.24410341  0.57808060  0.57142181     0.85700
C354        C  0.24984877  0.64065469  0.57226054    -0.54500
C355        C  0.21551638  0.66598210  0.58046764     0.08700
C356        C  0.17835306  0.62400811  0.58695892     0.19600
C357        C  0.25259450  0.56104707  0.58494804    -0.55200
C358        C  0.21730935  0.58443855  0.59305392     0.08800
C359        C  0.18464542  0.56843083  0.56881110    -0.54800
C360        C  0.15018006  0.59213596  0.57666137     0.09300
H361        H  0.27869757  0.66279516  0.56668358     0.13800
H362        H  0.15073574  0.63903337  0.59395274    -0.00400
H363        H  0.28584108  0.53630362  0.58802427     0.14200
H364        H  0.17052612  0.54525819  0.56102637     0.13900
C365        C  0.22992038  0.99396460  0.56885170     0.85700
C366        C  0.16874533  0.00174817  0.56823084    -0.54500
C367        C  0.13974842  0.97580909  0.57706205     0.08700
C368        C  0.17573679  0.94486010  0.58628640     0.19600
C369        C  0.24628851  0.01121671  0.58189048    -0.55200
C370        C  0.21698181  0.98668199  0.59096898     0.08800
C371        C  0.23805956  0.93188577  0.56938841    -0.54800
C372        C  0.20980013  0.90513634  0.57841296     0.09300
H373        H  0.14948136  0.02435249  0.56094853     0.13800
H374        H  0.15325765  0.92593784  0.59397094    -0.00400
H375        H  0.27945484  0.03852798  0.58388798     0.14200
H376        H  0.26463765  0.91091129  0.56315670     0.13900
C377        C  0.82732126  0.56313626  0.56904649     0.85700
C378        C  0.88779320  0.55843637  0.56674623    -0.54500
C379        C  0.91881212  0.58325672  0.57512546     0.08700
C380        C  0.88630362  0.61129021  0.58541945     0.19600
C381        C  0.81741972  0.54295711  0.58227388    -0.55200
C382        C  0.84869986  0.56784989  0.59085654     0.08800
C383        C  0.81673970  0.62459681  0.57033131    -0.54800
C384        C  0.84780218  0.65076813  0.57888636     0.09300
H385        H  0.90497538  0.53745626  0.55893022     0.13800
H386        H  0.91108298  0.62860039  0.59267085    -0.00400
H387        H  0.78604446  0.51418793  0.58477274     0.14200
H388        H  0.78702301  0.64557706  0.56490034     0.13900
C389        C  0.81165998  0.97756111  0.56974949     0.85700
C390        C  0.80820816  0.91501216  0.56836515    -0.54500
C391        C  0.84151376  0.88676933  0.57603541     0.08700
C392        C  0.87702154  0.92392531  0.58384209     0.19600
C393        C  0.80381535  0.98818209  0.58347511    -0.55200
C394        C  0.83712042  0.95929953  0.59100442     0.08800
C395        C  0.87179638  0.98900692  0.56722893    -0.54800
C396        C  0.90604553  0.96261510  0.57473979     0.09300
H397        H  0.78362589  0.89441406  0.56168544     0.13800
H398        H  0.90369483  0.89986220  0.58958080    -0.00400
H399        H  0.77463976  0.01722941  0.58688223     0.14200
H400        H  0.88638616  0.01654636  0.56019056     0.13900
In401      In  0.84558506  0.13984036  0.97861996     1.36900
C402        C  0.95181422  0.14801830  0.97607531     0.76800
O403        O  0.83612131  0.22186100  0.97042153    -0.61600
O404        O  0.80994830  0.21446707  0.98870092    -0.52500
C405        C  0.80566097  0.08916420  0.95947173     0.69500
O406        O  0.85473620  0.08627751  0.96247083    -0.47400
C407        C  0.83293619  0.05826022  0.99477695     0.74200
O408        O  0.92108774  0.13794809  0.96724100    -0.59200
O409        O  0.87050111  0.09264674  0.99522076    -0.49300
O410        O  0.92821950  0.15514194  0.98617406    -0.55700
C411        C  0.81921162  0.24577516  0.97977330     0.84400
O412        O  0.77698795  0.11969894  0.96613358    -0.57600
O413        O  0.79699911  0.06937980  0.98708917    -0.60900
In414      In  0.84911862  0.91737280  0.01530673     1.36900
C415        C  0.95505828  0.91479230  0.01316517     0.76800
O416        O  0.84231946  0.83416778  0.02349405    -0.61600
O417        O  0.82526371  0.83969668  0.00468944    -0.52500
C418        C  0.80074009  0.95396820  0.03521384     0.69500
O419        O  0.85028384  0.94231299  0.03476219    -0.47400
C420        C  0.83478530  0.00799953  0.00213028     0.74200
O421        O  0.93137781  0.92336341  0.02319317    -0.59200
O422        O  0.80433183  0.96698579  0.00072830    -0.49300
O423        O  0.92450936  0.90588113  0.00420075    -0.55700
C424        C  0.83204292  0.80896714  0.01382237     0.84400
O425        O  0.77466230  0.94344144  0.02559694    -0.57600
O426        O  0.87088293  0.00183316  0.01001555    -0.60900
In427      In  0.85504991  0.64090264  0.01428051     1.36900
C428        C  0.96073931  0.64696519  0.01086421     0.76800
O429        O  0.86867175  0.55336500  0.01008988    -0.61600
O430        O  0.80744390  0.59223058  0.99994069    -0.52500
C431        C  0.81446342  0.60562153  0.03510261     0.69500
O432        O  0.86427893  0.61420881  0.03344999    -0.47400
C433        C  0.83357022  0.74861025  0.01357747     0.74200
O434        O  0.93908553  0.63903974  0.02113979    -0.59200
O435        O  0.82816747  0.71913731  0.00421532    -0.49300
O436        O  0.92824699  0.65294236  0.00213600    -0.55700
C437        C  0.83328213  0.54889307  0.00198427     0.84400
O438        O  0.78439890  0.61825389  0.02622768    -0.57600
O439        O  0.84523451  0.72236927  0.02303544    -0.60900
In440      In  0.83768148  0.41359306  0.97947554     1.36900
C441        C  0.94445927  0.41572746  0.97700642     0.76800
O442        O  0.79707801  0.49206286  0.98595256    -0.61600
O443        O  0.85651241  0.45718125  0.99711705    -0.52500
C444        C  0.79029718  0.45308197  0.96004340     0.69500
O445        O  0.84099432  0.45122750  0.96130352    -0.47400
C446        C  0.81784232  0.30579228  0.97998306     0.74200
O447        O  0.91304228  0.42864009  0.96850928    -0.59200
O448        O  0.80403160  0.33544692  0.98887257    -0.49300
O449        O  0.92142941  0.40179188  0.98682409    -0.55700
C450        C  0.82736916  0.49777761  0.99503207     0.84400
O451        O  0.76269916  0.43303852  0.96878555    -0.57600
O452        O  0.83632491  0.33180207  0.97104866    -0.60900
In453      In  0.11997129  0.92257152  0.01018482     1.36900
C454        C  0.01363707  0.91682254  0.01204676     0.76800
O455        O  0.16562445  0.99763999  0.00280868    -0.61600
O456        O  0.09929052  0.96786953  0.99292635    -0.52500
C457        C  0.16098396  0.96870489  0.02995287     0.69500
O458        O  0.11150013  0.97123520  0.02725155    -0.47400
C459        C  0.14241818  0.81549258  0.00843693     0.74200
O460        O  0.04345856  0.92719902  0.02101299    -0.59200
O461        O  0.15674138  0.84819085  0.00010708    -0.49300
O462        O  0.03807488  0.90949584  0.00207056    -0.55700
C463        C  0.13319963  0.00545350  0.99418599     0.84400
O464        O  0.18928917  0.94012415  0.02275350    -0.57600
O465        O  0.12267546  0.83835108  0.01764368    -0.60900
In466      In  0.11641652  0.14372072  0.97260189     1.36900
C467        C  0.01051559  0.14894701  0.97478052     0.76800
O468        O  0.09781519  0.05854192  0.97799619    -0.61600
O469        O  0.15837490  0.09803997  0.98831013    -0.52500
C470        C  0.17160379  0.10624777  0.95360899     0.69500
O471        O  0.12074468  0.10427604  0.95435605    -0.47400
C472        C  0.12956003  0.25182653  0.97322941     0.74200
O473        O  0.03378465  0.14084806  0.96465777    -0.59200
O474        O  0.14475325  0.22221414  0.98203278    -0.49300
O475        O  0.04151832  0.15579440  0.98376369    -0.55700
C476        C  0.13104566  0.05513968  0.98657897     0.84400
O477        O  0.19400125  0.13160258  0.96222380    -0.57600
O478        O  0.11227959  0.22580565  0.96418383    -0.60900
In479      In  0.12580927  0.64723999  0.00764877     1.36900
C480        C  0.01934327  0.64792563  0.00942742     0.76800
O481        O  0.12494089  0.72800907  0.01657903    -0.61600
O482        O  0.15575393  0.72709905  0.99852047    -0.52500
C483        C  0.19108477  0.61361512  0.02473267     0.69500
O484        O  0.14075206  0.61805206  0.02631504    -0.47400
C485        C  0.13329174  0.55817374  0.99367852     0.74200
O486        O  0.04986717  0.63903097  0.01834253    -0.59200
O487        O  0.14074347  0.60535174  0.98934961    -0.49300
O488        O  0.04315927  0.65688716  0.99939623    -0.55700
C489        C  0.14276686  0.75537467  0.00773575     0.84400
O490        O  0.20911115  0.62907378  0.01442973    -0.57600
O491        O  0.12440847  0.55703232  0.00498097    -0.60900
In492      In  0.10965196  0.41938052  0.97282367     1.36900
C493        C  0.00314729  0.41696241  0.97553940     0.76800
O494        O  0.10203868  0.33652725  0.96502516    -0.61600
O495        O  0.14600560  0.34255148  0.98151981    -0.52500
C496        C  0.16547979  0.44805356  0.95311616     0.69500
O497        O  0.11502410  0.45455418  0.95418719    -0.47400
C498        C  0.13033071  0.50845488  0.98619371     0.74200
O499        O  0.02580853  0.42677354  0.96542868    -0.59200
O500        O  0.13581220  0.46106195  0.99044008    -0.49300
O501        O  0.03484360  0.40833383  0.98426919    -0.55700
C502        C  0.12699134  0.31186378  0.97331893     0.84400
O503        O  0.18690530  0.42407332  0.96207781    -0.57600
O504        O  0.11770355  0.50983394  0.97512357    -0.60900
C505        C  0.80058931  0.06189593  0.41336611     0.85700
C506        C  0.79106436  0.12331874  0.41320119    -0.54500
C507        C  0.81707336  0.15111407  0.40400178     0.08700
C508        C  0.84895055  0.11311307  0.39532746     0.19600
C509        C  0.78414357  0.04210573  0.40054648    -0.55200
C510        C  0.80779185  0.07020222  0.39120414     0.08800
C511        C  0.86258430  0.05553388  0.41288875    -0.54800
C512        C  0.88877801  0.08217125  0.40361115     0.09300
H513        H  0.76770925  0.14356929  0.42025467     0.13800
H514        H  0.86864483  0.13287583  0.38741099    -0.00400
H515        H  0.75755134  0.00810866  0.39882591     0.14200
H516        H  0.88428281  0.03093105  0.41935584     0.13900
C517        C  0.80544289  0.47690826  0.41642365     0.85700
C518        C  0.86735143  0.47902793  0.41768785    -0.54500
C519        C  0.89614615  0.45279178  0.40886764     0.08700
C520        C  0.85912121  0.42608398  0.39923645     0.19600
C521        C  0.79738791  0.49997590  0.40339772    -0.55200
C522        C  0.82378410  0.47240648  0.39439347     0.08800
C523        C  0.79192095  0.41616549  0.41549327    -0.54800
C524        C  0.82027084  0.38886686  0.40665404     0.09300
H525        H  0.88715001  0.50011864  0.42507107     0.13800
H526        H  0.88127110  0.40563921  0.39175646    -0.00400
H527        H  0.77568935  0.53670542  0.40132879     0.14200
H528        H  0.76407782  0.39595715  0.42173305     0.13900
C529        C  0.21536958  0.05880908  0.41402970     0.85700
C530        C  0.15299380  0.05623903  0.41458296    -0.54500
C531        C  0.12665346  0.08361215  0.40551051     0.08700
C532        C  0.16682779  0.11302047  0.39674480     0.19600
C533        C  0.22711643  0.03821995  0.40093217    -0.55200
C534        C  0.20338823  0.06761003  0.39194055     0.08800
C535        C  0.22873986  0.11940770  0.41387526    -0.54800
C536        C  0.20288027  0.14863947  0.40511818     0.09300
H537        H  0.13147587  0.03379563  0.42157381     0.13800
H538        H  0.14795847  0.13499817  0.38907866    -0.00400
H539        H  0.24893376  0.00152152  0.39882226     0.14200
H540        H  0.25445594  0.13825205  0.42065919     0.13900
C541        C  0.22701361  0.47423259  0.41538492     0.85700
C542        C  0.24190218  0.41392893  0.41404504    -0.54500
C543        C  0.20916320  0.38528879  0.40644699     0.08700
C544        C  0.16734052  0.42088560  0.39978200     0.19600
C545        C  0.23197219  0.49430889  0.40195012    -0.55200
C546        C  0.20036430  0.46678119  0.39377551     0.08800
C547        C  0.16598856  0.47395694  0.41832918    -0.54800
C548        C  0.13398255  0.44796357  0.41005641     0.09300
H549        H  0.27600145  0.39479794  0.41839464     0.13800
H550        H  0.14315882  0.39884537  0.39292452    -0.00400
H551        H  0.25928301  0.52637840  0.39908490     0.14200
H552        H  0.14971151  0.49306239  0.42645758     0.13900
C553        C  0.20789063  0.06449216  0.31852405     0.85700
C554        C  0.21474087  0.12637837  0.31734749    -0.54500
C555        C  0.18805703  0.15593653  0.32597721     0.08700
C556        C  0.15666168  0.12000988  0.33509804     0.19600
C557        C  0.22483004  0.05043692  0.33141731    -0.55200
C558        C  0.19842402  0.07863352  0.34015792     0.08800
C559        C  0.14541108  0.05724380  0.31852141    -0.54800
C560        C  0.11779767  0.08699440  0.32710736     0.09300
H561        H  0.23819648  0.14530173  0.31010284     0.13800
H562        H  0.13582456  0.14476980  0.34190905    -0.00400
H563        H  0.25423206  0.01928530  0.33351175     0.14200
H564        H  0.12441942  0.03274663  0.31190633     0.13900
C565        C  0.78965428  0.08061824  0.31780320     0.85700
C566        C  0.85019331  0.06647631  0.31849250    -0.54500
C567        C  0.87872743  0.09326757  0.32734418     0.08700
C568        C  0.84164657  0.12887166  0.33541246     0.19600
C569        C  0.76681418  0.06857950  0.33066427    -0.55200
C570        C  0.79522772  0.09144313  0.33985964     0.08800
C571        C  0.78771541  0.14304072  0.31731682    -0.54800
C572        C  0.81490104  0.16838201  0.32651174     0.09300
H573        H  0.86925896  0.03904006  0.31207009     0.13800
H574        H  0.86151748  0.15107047  0.34286477    -0.00400
H575        H  0.73158384  0.04351060  0.33250313     0.14200
H576        H  0.76451965  0.16549376  0.31068479     0.13900
C577        C  0.78534920  0.48513339  0.32026077     0.85700
C578        C  0.78046246  0.42374636  0.32220019    -0.54500
C579        C  0.81512071  0.40145773  0.33051978     0.08700
C580        C  0.85365858  0.44418893  0.33586756     0.19600
C581        C  0.78162720  0.50948808  0.33334501    -0.55200
C582        C  0.81615005  0.48646064  0.34159411     0.08800
C583        C  0.84511807  0.49485036  0.31689645    -0.54800
C584        C  0.88085736  0.47238346  0.32475301     0.09300
H585        H  0.75235971  0.39961799  0.31692156     0.13800
H586        H  0.88236269  0.42975557  0.34268678    -0.00400
H587        H  0.75646712  0.54297783  0.33602499     0.14200
H588        H  0.85823558  0.51641484  0.30874115     0.13900
C589        C  0.20968974  0.48371154  0.31900588     0.85700
C590        C  0.21645565  0.49857452  0.33248211    -0.54500
C591        C  0.18494370  0.46931769  0.34044567     0.08700
C592        C  0.14684012  0.42851060  0.33387976     0.19600
C593        C  0.21723335  0.42211401  0.31840662    -0.55200
C594        C  0.18482807  0.39286081  0.32606172     0.08800
C595        C  0.14847887  0.49005240  0.31653528    -0.54800
C596        C  0.11519546  0.46235458  0.32441305     0.09300
H597        H  0.24461613  0.52954477  0.33546095     0.13800
H598        H  0.12024601  0.40478057  0.34011085    -0.00400
H599        H  0.24371631  0.40235427  0.31192222     0.14200
H600        H  0.13256972  0.51411883  0.30909088     0.13900
In601      In  0.12290053  0.92389964  0.22414944     1.36900
C602        C  0.12700936  0.81779079  0.22474667     0.76800
O603        O  0.21372810  0.92490984  0.22574728    -0.61600
O604        O  0.16772385  0.94441284  0.24158524    -0.52500
C605        C  0.14549546  0.99177982  0.20646594     0.69500
O606        O  0.14325754  0.94134623  0.20481885    -0.47400
C607        C  0.01494912  0.93522969  0.22500817     0.74200
O608        O  0.13949678  0.84496588  0.21537325    -0.59200
O609        O  0.04444988  0.95230847  0.23364010    -0.49300
O610        O  0.11158499  0.84487253  0.23385642    -0.55700
C611        C  0.21419247  0.93591191  0.23694358     0.84400
O612        O  0.13303000  0.00777689  0.21708720    -0.57600
O613        O  0.04088457  0.91475691  0.21624774    -0.60900
In614      In  0.35201674  0.91295528  0.25800969     1.36900
C615        C  0.35268375  0.80621515  0.25693991     0.76800
O616        O  0.26291587  0.92833904  0.25555002    -0.61600
O617        O  0.31178638  0.93158181  0.23966006    -0.52500
C618        C  0.31814101  0.96099508  0.27786406     0.69500
O619        O  0.32288018  0.91043965  0.27695673    -0.47400
C620        C  0.45944653  0.93174820  0.25884184     0.74200
O621        O  0.33650984  0.83229592  0.26606268    -0.59200
O622        O  0.43118239  0.95116493  0.25026670    -0.49300
O623        O  0.36738286  0.83462725  0.24793233    -0.55700
C624        C  0.26443938  0.93343034  0.24418130     0.84400
O625        O  0.33460166  0.98815566  0.26869834    -0.57600
O626        O  0.43230443  0.90714334  0.26684360    -0.60900
In627      In  0.62656572  0.91405945  0.26116920     1.36900
C628        C  0.62619398  0.80668814  0.26109814     0.76800
O629        O  0.54225326  0.90885569  0.26839065    -0.61600
O630        O  0.55183785  0.95071483  0.25163471    -0.52500
C631        C  0.66363277  0.97070955  0.27983700     0.69500
O632        O  0.66520673  0.91989155  0.27924814    -0.47400
C633        C  0.71248885  0.92968750  0.24650571     0.74200
O634        O  0.62892292  0.83400502  0.27074477    -0.59200
O635        O  0.66444047  0.93131928  0.24258782    -0.49300
O636        O  0.62292946  0.83411406  0.25143879    -0.55700
C637        C  0.51937227  0.93209663  0.25961273     0.84400
O638        O  0.63879413  0.99298449  0.27109119    -0.57600
O639        O  0.71609136  0.92367853  0.25783500    -0.60900
In640      In  0.84729147  0.91879462  0.22406980     1.36900
C641        C  0.84854348  0.81221774  0.22439909     0.76800
O642        O  0.93006680  0.91568352  0.21590614    -0.61600
O643        O  0.92435793  0.95048356  0.23350456    -0.52500
C644        C  0.81031460  0.98182450  0.20667657     0.69500
O645        O  0.81694789  0.93173864  0.20524905    -0.47400
C646        C  0.76064419  0.92969613  0.23853023     0.74200
O647        O  0.84081004  0.83886411  0.21475304    -0.59200
O648        O  0.80804124  0.94064982  0.24217946    -0.49300
O649        O  0.85550549  0.84001731  0.23387699    -0.55700
C650        C  0.95494937  0.93506495  0.22487522     0.84400
O651        O  0.82712734  0.00069907  0.21669113    -0.57600
O652        O  0.75797112  0.91485342  0.22759025    -0.60900
In653      In  0.35472682  0.64096101  0.25881501     1.36900
C654        C  0.35439158  0.74745208  0.25721453     0.76800
O655        O  0.43589036  0.64514058  0.26751597    -0.61600
O656        O  0.43412742  0.60733908  0.25024154    -0.52500
C657        C  0.32194019  0.58944901  0.27863905     0.69500
O658        O  0.33182455  0.63937970  0.27824329    -0.47400
C659        C  0.26548316  0.62770647  0.24508815     0.74200
O660        O  0.34061471  0.72183683  0.26666146    -0.59200
O661        O  0.31223195  0.61502706  0.24115923    -0.49300
O662        O  0.36956529  0.71866225  0.24836039    -0.55700
C663        C  0.46283049  0.62382112  0.25905781     0.84400
O664        O  0.33235718  0.56397167  0.26886719    -0.57600
O665        O  0.26480210  0.64328585  0.25598309    -0.60900
In666      In  0.12845358  0.65220632  0.22360761     1.36900
C667        C  0.12954622  0.75905964  0.22482487     0.76800
O668        O  0.04481525  0.66005956  0.21663550    -0.61600
O669        O  0.05260118  0.61016806  0.23218008    -0.52500
C670        C  0.15343206  0.61189052  0.20217144     0.69500
O671        O  0.14903234  0.66174418  0.20420669    -0.47400
C672        C  0.21586641  0.62963615  0.23753446     0.74200
O673        O  0.14862096  0.73330196  0.21594446    -0.59200
O674        O  0.16916090  0.63750991  0.24194960    -0.49300
O675        O  0.11192892  0.73030190  0.23349622    -0.55700
C676        C  0.02097907  0.63214588  0.22459905     0.84400
O677        O  0.14247433  0.58129647  0.21119467    -0.57600
O678        O  0.21697960  0.62863971  0.22608243    -0.60900
In679      In  0.63077113  0.64056282  0.26160067     1.36900
C680        C  0.62736415  0.74766354  0.26117691     0.76800
O681        O  0.72076592  0.64741010  0.25857652    -0.61600
O682        O  0.67430220  0.61272454  0.24436962    -0.52500
C683        C  0.66326954  0.58038188  0.28011192     0.69500
O684        O  0.65985012  0.63112494  0.28061279    -0.47400
C685        C  0.52298324  0.62329727  0.25971479     0.74200
O686        O  0.63289009  0.72090703  0.27087829    -0.59200
O687        O  0.55515275  0.61025760  0.25116852    -0.49300
O688        O  0.62343659  0.71975114  0.25161367    -0.55700
C689        C  0.72059771  0.62771563  0.24801639     0.84400
O690        O  0.64674708  0.55963612  0.27026092    -0.57600
O691        O  0.54641587  0.64066310  0.26908671    -0.60900
In692      In  0.85308762  0.64648460  0.22481424     1.36900
C693        C  0.84969694  0.75340405  0.22457480     0.76800
O694        O  0.76751355  0.61881002  0.22901178    -0.61600
O695        O  0.81638418  0.64010531  0.24397392    -0.52500
C696        C  0.81491729  0.59455545  0.20578981     0.69500
O697        O  0.80997237  0.64482471  0.20732919    -0.47400
C698        C  0.96095579  0.63079227  0.22483371     0.74200
O699        O  0.84359444  0.72556974  0.21509283    -0.59200
O700        O  0.93104118  0.60884905  0.23290526    -0.49300
O701        O  0.85720993  0.72670908  0.23420302    -0.55700
C702        C  0.76972144  0.62731449  0.24025480     0.84400
O703        O  0.84315835  0.57067754  0.21377755    -0.57600
O704        O  0.93529437  0.65631782  0.21683747    -0.60900
C705        C  0.25387258  0.51250261  0.16055873     0.85700
C706        C  0.24184680  0.52007616  0.14697933    -0.54500
C707        C  0.27524198  0.49186848  0.13940283     0.08700
C708        C  0.31802637  0.45768009  0.14615339     0.19600
C709        C  0.25271383  0.45050498  0.16276776    -0.55200
C710        C  0.28535713  0.42091113  0.15503818     0.08800
C711        C  0.31423970  0.52567090  0.16201651    -0.54800
C712        C  0.34811975  0.49754617  0.15465164     0.09300
H713        H  0.20957040  0.54569240  0.14364076     0.13800
H714        H  0.34472956  0.43558114  0.13972954    -0.00400
H715        H  0.22926790  0.43199062  0.17007620     0.14200
H716        H  0.32988735  0.55235801  0.16900713     0.13900
C717        C  0.25701383  0.09963647  0.16672266     0.85700
C718        C  0.25810229  0.16145223  0.16574470    -0.54500
C719        C  0.29160049  0.18292426  0.15696103     0.08700
C720        C  0.32507529  0.13847418  0.15049382     0.19600
C721        C  0.24733424  0.07918190  0.15349261    -0.55200
C722        C  0.28227867  0.10048648  0.14492525     0.08800
C723        C  0.31581280  0.08344229  0.16891757    -0.54800
C724        C  0.35186742  0.10466515  0.16085668     0.09300
H725        H  0.23355952  0.18643415  0.17172247     0.13800
H726        H  0.35348289  0.15301116  0.14342490    -0.00400
H727        H  0.21817726  0.04850405  0.15102234     0.14200
H728        H  0.32855359  0.05925696  0.17666432     0.13900
C729        C  0.68002725  0.09194225  0.16977949     0.85700
C730        C  0.68667482  0.07645575  0.15615872    -0.54500
C731        C  0.65355183  0.10436272  0.14835033     0.08700
C732        C  0.61452204  0.14314886  0.15512576     0.19600
C733        C  0.68622276  0.15369887  0.16991450    -0.55200
C734        C  0.65156092  0.18095911  0.16252134     0.08800
C735        C  0.61929202  0.07976565  0.17195062    -0.54800
C736        C  0.58493693  0.10751698  0.16462393     0.09300
H737        H  0.71302955  0.04475321  0.15287490     0.13800
H738        H  0.58607506  0.16512134  0.14913585    -0.00400
H739        H  0.71641624  0.17388979  0.17542846     0.14200
H740        H  0.60450807  0.05067241  0.17862472     0.13900
C741        C  0.67176392  0.49836639  0.16941106     0.85700
C742        C  0.66336206  0.43652842  0.17057479    -0.54500
C743        C  0.62987836  0.41354883  0.16200723     0.08700
C744        C  0.61034537  0.45566183  0.15266916     0.19600
C745        C  0.69497398  0.50321441  0.15636790    -0.55200
C746        C  0.66270339  0.48216871  0.14759213     0.08800
C747        C  0.61432569  0.52206508  0.16892865    -0.54800
C748        C  0.58176041  0.49891416  0.16036463     0.09300
H749        H  0.68512484  0.41223079  0.17714818     0.13800
H750        H  0.58316059  0.44063013  0.14558396    -0.00400
H751        H  0.73481017  0.51949663  0.15424382     0.14200
H752        H  0.60003042  0.55265934  0.17524399     0.13900
C753        C  0.68793058  0.06833332  0.07398591     0.85700
C754        C  0.69260812  0.05674502  0.08774362    -0.54500
C755        C  0.66275046  0.09036174  0.09503396     0.08700
C756        C  0.63011545  0.13266027  0.08777981     0.19600
C757        C  0.62634273  0.06664842  0.07141115    -0.55200
C758        C  0.59509018  0.09921120  0.07876908     0.08800
C759        C  0.70100695  0.12872753  0.07234989    -0.54800
C760        C  0.67244690  0.16231900  0.07967165     0.09300
H761        H  0.71702918  0.02412493  0.09134554     0.13800
H762        H  0.60705235  0.15982386  0.09388518    -0.00400
H763        H  0.60890956  0.04223746  0.06421905     0.14200
H764        H  0.72834684  0.14454714  0.06540256     0.13900
C765        C  0.70905508  0.48935150  0.07436678     0.85700
C766        C  0.64801891  0.50036551  0.07310889    -0.54500
C767        C  0.61476340  0.46739624  0.07981266     0.08700
C768        C  0.64649602  0.42634220  0.08764256     0.19600
C769        C  0.71989482  0.49263974  0.08809147    -0.55200
C770        C  0.68645935  0.46118329  0.09520457     0.08800
C771        C  0.71302713  0.42870816  0.07117414    -0.54800
C772        C  0.68195766  0.39569951  0.07831457     0.09300
H773        H  0.63199628  0.53086108  0.06706647     0.13800
H774        H  0.62019203  0.39909733  0.09315088    -0.00400
H775        H  0.74987808  0.51985707  0.09190947     0.14200
H776        H  0.73754196  0.41269807  0.06378713     0.13900
C777        C  0.26509169  0.08591587  0.06992448     0.85700
C778        C  0.32601746  0.07588349  0.06833044    -0.54500
C779        C  0.35790598  0.10155085  0.07649648     0.08700
C780        C  0.32523808  0.13338339  0.08621183     0.19600
C781        C  0.25433619  0.06651399  0.08323569    -0.55200
C782        C  0.28524049  0.09235495  0.09177733     0.08800
C783        C  0.25963642  0.14768244  0.07032113    -0.54800
C784        C  0.28927439  0.17384882  0.07908757     0.09300
H785        H  0.34287260  0.05119379  0.06108247     0.13800
H786        H  0.35115214  0.14946451  0.09334827    -0.00400
H787        H  0.22684831  0.03419615  0.08579737     0.14200
H788        H  0.23592477  0.16877316  0.06354757     0.13900
C789        C  0.29471289  0.49978085  0.06474791     0.85700
C790        C  0.27083205  0.51269123  0.07753196    -0.54500
C791        C  0.29375836  0.48432563  0.08686248     0.08700
C792        C  0.33629696  0.44313223  0.08249998     0.19600
C793        C  0.35596130  0.50652572  0.06608598    -0.55200
C794        C  0.37867788  0.47617885  0.07509157     0.08800
C795        C  0.28480627  0.43812562  0.06382163    -0.54800
C796        C  0.30658553  0.40799076  0.07301415     0.09300
H797        H  0.23720224  0.53977618  0.07913185     0.13800
H798        H  0.35315422  0.41922641  0.09012802    -0.00400
H799        H  0.37978199  0.53242108  0.06007066     0.14200
H800        H  0.26142339  0.42003140  0.05659777     0.13900
C801        C  0.34320661  0.31749377  0.07914706    -0.02600
C802        C  0.29992402  0.34767485  0.07439543     0.07100
C803        C  0.24906799  0.32117501  0.07305886    -0.02700
C804        C  0.24354483  0.26556634  0.07601638    -0.02700
C805        C  0.28852867  0.23525267  0.08027022     0.07200
C806        C  0.33497881  0.26516267  0.08369160    -0.02900
Br807      Br  0.38305799  0.24438142  0.09666474    -0.01500
Br808      Br  0.41697635  0.34293999  0.07810268    -0.01500
Br809      Br  0.17139451  0.23448802  0.07655929    -0.01500
Br810      Br  0.18495464  0.35999500  0.06802342    -0.01500
C811        C  0.52922857  0.46806344  0.06706162    -0.02600
C812        C  0.55417240  0.46913868  0.07870178     0.07100
C813        C  0.52049932  0.47201055  0.08919639    -0.02700
C814        C  0.46381202  0.47662840  0.08803958    -0.02700
C815        C  0.43908013  0.47259442  0.07652006     0.07200
C816        C  0.47259638  0.46465791  0.06616891    -0.02900
Br817      Br  0.44251141  0.44083069  0.05091032    -0.01500
Br818      Br  0.57010158  0.47186155  0.05188269    -0.01500
Br819      Br  0.42107154  0.49085152  0.10234231    -0.01500
Br820      Br  0.55061711  0.47295973  0.10534124    -0.01500
C821        C  0.44667070  0.05006509  0.07657641    -0.02600
C822        C  0.41836365  0.09923477  0.07588286     0.07100
C823        C  0.44820327  0.14714813  0.07476654    -0.02700
C824        C  0.50366680  0.14845760  0.07741790    -0.02700
C825        C  0.53362019  0.09967175  0.07807676     0.07200
C826        C  0.50366768  0.05024095  0.07761528    -0.02900
Br827      Br  0.53742526  0.98179462  0.08060964    -0.01500
Br828      Br  0.40807600  0.98179099  0.07573313    -0.01500
Br829      Br  0.53221004  0.21816989  0.08164143    -0.01500
Br830      Br  0.41777638  0.20610820  0.06573758    -0.01500
C831        C  0.72423996  0.30673022  0.08358632    -0.02600
C832        C  0.68405856  0.33574785  0.07735049     0.07100
C833        C  0.64758937  0.30694160  0.06995217    -0.02700
C834        C  0.64867406  0.25014556  0.06972752    -0.02700
C835        C  0.67864498  0.22196216  0.07852947     0.07200
C836        C  0.71888423  0.25034877  0.08500154    -0.02900
Br837      Br  0.76836856  0.21281761  0.09532689    -0.01500
Br838      Br  0.78847079  0.34331770  0.08932530    -0.01500
Br839      Br  0.61344906  0.21128377  0.05668848    -0.01500
Br840      Br  0.59734727  0.34393214  0.05978801    -0.01500
C841        C  0.69453198  0.43039948  0.12943998    -0.02600
C842        C  0.67916188  0.47982309  0.13453236     0.07100
C843        C  0.67518181  0.52530036  0.12690776    -0.02700
C844        C  0.67717970  0.51914413  0.11413119    -0.02700
C845        C  0.68462870  0.46726201  0.10884844     0.07200
C846        C  0.69205944  0.42263857  0.11676389    -0.02900
Br847      Br  0.69288527  0.34965888  0.11105082    -0.01500
Br848      Br  0.72874544  0.37716455  0.13964778    -0.01500
Br849      Br  0.66137573  0.58142542  0.10420877    -0.01500
Br850      Br  0.67040403  0.59649927  0.13392380    -0.01500
C851        C  0.60913968  0.08759920  0.12785074    -0.02600
C852        C  0.65620245  0.09811604  0.13468877     0.07100
C853        C  0.70610631  0.10328498  0.12832870    -0.02700
C854        C  0.70932112  0.09410274  0.11563093    -0.02700
C855        C  0.66161483  0.08754427  0.10873851     0.07200
C856        C  0.61177814  0.08306931  0.11505672    -0.02900
Br857      Br  0.54635823  0.06577456  0.10654754    -0.01500
Br858      Br  0.53967949  0.07907380  0.13559912    -0.01500
Br859      Br  0.77990786  0.08870448  0.10808317    -0.01500
Br860      Br  0.76889555  0.13223404  0.13635665    -0.01500
C861        C  0.63708763  0.26815651  0.15106461    -0.02600
C862        C  0.64633508  0.24132518  0.16226615     0.07100
C863        C  0.64006368  0.27108285  0.17323041    -0.02700
C864        C  0.62219973  0.32470350  0.17280671    -0.02700
C865        C  0.61995747  0.35321152  0.16171062     0.07200
C866        C  0.61998952  0.32237847  0.15082763    -0.02900
Br867      Br  0.58819529  0.34753789  0.13582974    -0.01500
Br868      Br  0.65505729  0.23429501  0.13572574    -0.01500
Br869      Br  0.58760447  0.35469307  0.18701836    -0.01500
Br870      Br  0.65209027  0.24061487  0.18921840    -0.01500
C871        C  0.23270089  0.10425668  0.12459282    -0.02600
C872        C  0.27911625  0.08994464  0.13139262     0.07100
C873        C  0.32462130  0.07022728  0.12495925    -0.02700
C874        C  0.32451878  0.06663134  0.11213959    -0.02700
C875        C  0.28002480  0.08482060  0.10533265     0.07200
C876        C  0.23363071  0.10286731  0.11167211    -0.02900
Br877      Br  0.17271734  0.13024323  0.10269146    -0.01500
Br878      Br  0.16830737  0.12925366  0.13265522    -0.01500
Br879      Br  0.38602968  0.03575358  0.10404152    -0.01500
Br880      Br  0.38840270  0.04772006  0.13340699    -0.01500
C881        C  0.43703478  0.14698599  0.16827966    -0.02600
C882        C  0.41088450  0.10176887  0.16333603     0.07100
C883        C  0.44023487  0.05301678  0.16233182    -0.02700
C884        C  0.49727731  0.05372965  0.16330327    -0.02700
C885        C  0.52462628  0.10305787  0.16558888     0.07200
C886        C  0.49361135  0.14849673  0.16889365    -0.02900
Br887      Br  0.52663273  0.21191263  0.17535476    -0.01500
Br888      Br  0.39540759  0.20274881  0.17628900    -0.01500
Br889      Br  0.53733283  0.98773774  0.16084236    -0.01500
Br890      Br  0.40254289  0.98489223  0.16073483    -0.01500
C891        C  0.28368512  0.54130054  0.11923368    -0.02600
C892        C  0.27078405  0.49379933  0.12583570     0.07100
C893        C  0.25498891  0.44742449  0.11935190    -0.02700
C894        C  0.25676745  0.44693086  0.10655768    -0.02700
C895        C  0.27870435  0.49094469  0.10002397     0.07200
C896        C  0.29035079  0.53914852  0.10642202    -0.02900
Br897      Br  0.31993840  0.60098300  0.09801500    -0.01500
Br898      Br  0.29280034  0.60924551  0.12763124    -0.01500
Br899      Br  0.22451346  0.38733512  0.09815714    -0.01500
Br900      Br  0.22787854  0.38474148  0.12772557    -0.01500
C901        C  0.23954197  0.32812609  0.15538148    -0.02600
C902        C  0.28776691  0.35950331  0.15497689     0.07100
C903        C  0.33745433  0.33150566  0.15337844    -0.02700
C904        C  0.33870367  0.27448567  0.15219808    -0.02700
C905        C  0.29108882  0.24321422  0.15421872     0.07200
C906        C  0.24119735  0.27126161  0.15482812    -0.02900
Br907      Br  0.17300593  0.23271745  0.15342566    -0.01500
Br908      Br  0.16893107  0.36094308  0.15583625    -0.01500
Br909      Br  0.40603120  0.24278568  0.14672145    -0.01500
Br910      Br  0.40615418  0.36864364  0.15405425    -0.01500
C911        C  0.43101842  0.48953916  0.16788735    -0.02600
C912        C  0.40795784  0.50093757  0.15637074     0.07100
C913        C  0.44193961  0.51778081  0.14675854    -0.02700
C914        C  0.49830645  0.52020001  0.14828707    -0.02700
C915        C  0.52186521  0.50689986  0.15958189     0.07200
C916        C  0.48746413  0.49356012  0.16953576    -0.02900
Br917      Br  0.51649658  0.47876946  0.18545822    -0.01500
Br918      Br  0.38622725  0.46342230  0.18125327    -0.01500
Br919      Br  0.54247466  0.54399426  0.13483077    -0.01500
Br920      Br  0.41156631  0.54002315  0.13156361    -0.01500
C921        C  0.75234802  0.52105146  0.19920819    -0.02600
C922        C  0.78421765  0.56649766  0.19613371     0.07100
C923        C  0.77564638  0.59284082  0.18489211    -0.02700
C924        C  0.73581364  0.57394197  0.17682630    -0.02700
C925        C  0.70747295  0.52497646  0.17926971     0.07200
C926        C  0.71168542  0.50319606  0.19123068    -0.02900
Br927      Br  0.65287857  0.46301274  0.19848145    -0.01500
Br928      Br  0.75999057  0.48564538  0.21489291    -0.01500
Br929      Br  0.71344009  0.62225833  0.16396618    -0.01500
Br930      Br  0.81889371  0.65524901  0.18036469    -0.01500
C931        C  0.21477970  0.61900240  0.18399473    -0.02600
C932        C  0.17228184  0.59191842  0.19021669     0.07100
C933        C  0.14592873  0.54849363  0.18445434    -0.02700
C934        C  0.16756382  0.52721317  0.17356346    -0.02700
C935        C  0.21743991  0.54677076  0.16893415     0.07200
C936        C  0.23430822  0.59850763  0.17289884    -0.02900
Br937      Br  0.27674043  0.64541908  0.16234456    -0.01500
Br938      Br  0.25001227  0.68182454  0.19083162    -0.01500
Br939      Br  0.12267454  0.48228285  0.16360263    -0.01500
Br940      Br  0.07853534  0.52070320  0.19097216    -0.01500
C941        C  0.80041372  0.01871012  0.18561015    -0.02600
C942        C  0.78117556  0.01452597  0.19763032     0.07100
C943        C  0.73275071  0.04001090  0.20098405    -0.02700
C944        C  0.70159704  0.06680066  0.19215259    -0.02700
C945        C  0.71727010  0.06612624  0.17952438     0.07200
C946        C  0.77043347  0.04706338  0.17677636    -0.02900
Br947      Br  0.80974186  0.06885387  0.16236265    -0.01500
Br948      Br  0.87008210  0.98797471  0.18153178    -0.01500
Br949      Br  0.64054080  0.10774144  0.19830543    -0.01500
Br950      Br  0.70752160  0.03603536  0.21775239    -0.01500
C951        C  0.14237467  0.02882516  0.18526026    -0.02600
C952        C  0.16585405  0.02834201  0.19689347     0.07100
C953        C  0.21133482  0.06063498  0.19922255    -0.02700
C954        C  0.23675654  0.08869957  0.18961644    -0.02700
C955        C  0.21962222  0.08098142  0.17731384     0.07200
C956        C  0.16782620  0.05703232  0.17558005    -0.02900
Br957      Br  0.12453663  0.07288974  0.16147209    -0.01500
Br958      Br  0.07367313  0.99296315  0.18287259    -0.01500
Br959      Br  0.29323413  0.13937713  0.19393698    -0.01500
Br960      Br  0.24192949  0.06303964  0.21544644    -0.01500
C961        C  0.29696716  0.49600732  0.30573821    -0.02600
C962        C  0.24700208  0.51643478  0.31030439     0.07100
C963        C  0.23144604  0.56833165  0.30624309    -0.02700
C964        C  0.25406810  0.59053631  0.29556325    -0.02700
C965        C  0.29758587  0.56447589  0.28965571     0.07200
C966        C  0.32068466  0.51860621  0.29511440    -0.02900
Br967      Br  0.38693776  0.48914936  0.28854142    -0.01500
Br968      Br  0.34045812  0.44740935  0.31540389    -0.01500
Br969      Br  0.22257562  0.65550399  0.28881581    -0.01500
Br970      Br  0.18690709  0.61397372  0.31626715    -0.01500
C971        C  0.97123006  0.51972245  0.32394280    -0.02600
C972        C  0.94022295  0.47258033  0.32245015     0.07100
C973        C  0.96646357  0.42439712  0.31937012    -0.02700
C974        C  0.02273180  0.41966696  0.32084123    -0.02700
C975        C  0.05453597  0.46568391  0.32363671     0.07200
C976        C  0.02801200  0.51623913  0.32480821    -0.02900
Br977      Br  0.06729851  0.58047652  0.32909397    -0.01500
Br978      Br  0.93610218  0.58936010  0.32405106    -0.01500
Br979      Br  0.05333022  0.34898809  0.31946674    -0.01500
Br980      Br  0.92661130  0.36877817  0.31094758    -0.01500
C981        C  0.75811148  0.48907017  0.29760937    -0.02600
C982        C  0.74656653  0.50401459  0.30997979     0.07100
C983        C  0.69785627  0.53345172  0.31210122    -0.02700
C984        C  0.67024014  0.55763450  0.30227071    -0.02700
C985        C  0.68738313  0.54893071  0.29018613     0.07200
C986        C  0.72968153  0.51259355  0.28785029    -0.02900
Br987      Br  0.75142289  0.49757609  0.27119057    -0.01500
Br988      Br  0.81064310  0.43386573  0.29349455    -0.01500
Br989      Br  0.60614043  0.60053242  0.30522950    -0.01500
Br990      Br  0.65952776  0.53170282  0.32747507    -0.01500
C991        C  0.76542852  0.25659383  0.32948563    -0.02600
C992        C  0.81472165  0.22815600  0.32855509     0.07100
C993        C  0.86345600  0.25608728  0.33102160    -0.02700
C994        C  0.86297090  0.31090783  0.33436180    -0.02700
C995        C  0.81480865  0.34135806  0.33311132     0.07200
C996        C  0.76555471  0.31225555  0.33206896    -0.02900
Br997      Br  0.69741654  0.34680191  0.33573540    -0.01500
Br998      Br  0.69664608  0.22096037  0.32704299    -0.01500
Br999      Br  0.92748492  0.33806004  0.34218535    -0.01500
Br1000     Br  0.93287624  0.22299985  0.32836031    -0.01500
C1001       C  0.70049566  0.97642679  0.30104730    -0.02600
C1002       C  0.69314459  0.00066159  0.28950380     0.07100
C1003       C  0.72305314  0.04777802  0.28655292    -0.02700
C1004       C  0.75701675  0.07210521  0.29531073    -0.02700
C1005       C  0.76024069  0.05060845  0.30736934     0.07200
C1006       C  0.73738486  0.99850828  0.30938464    -0.02900
Br1007     Br  0.76463585  0.95055918  0.32190292    -0.01500
Br1008     Br  0.65942705  0.91294637  0.30584863    -0.01500
Br1009     Br  0.80600808  0.12789765  0.28955542    -0.01500
Br1010     Br  0.72185022  0.07702491  0.27012866    -0.01500
C1011       C  0.02702809  0.09722548  0.31651229    -0.02600
C1012       C  0.05654116  0.09164855  0.32752359     0.07100
C1013       C  0.02671998  0.09350186  0.33871347    -0.02700
C1014       C  0.96946519  0.09310035  0.33876957    -0.02700
C1015       C  0.94007460  0.09347134  0.32768238     0.07200
C1016       C  0.97000619  0.09977127  0.31666039    -0.02900
Br1017     Br  0.93465234  0.12264986  0.30182686    -0.01500
Br1018     Br  0.06318153  0.10842534  0.30094282    -0.01500
Br1019     Br  0.93391854  0.09522080  0.35452378    -0.01500
Br1020     Br  0.06073003  0.09962727  0.35450748    -0.01500
C1021       C  0.17746992  0.24629009  0.31498481    -0.02600
C1022       C  0.18632958  0.21687488  0.32594541     0.07100
C1023       C  0.19314581  0.24633015  0.33690188    -0.02700
C1024       C  0.19202074  0.30321167  0.33690187    -0.02700
C1025       C  0.18472220  0.33229657  0.32598812     0.07200
C1026       C  0.17796013  0.30334472  0.31495811    -0.02900
Br1027     Br  0.16521683  0.34114241  0.29969553    -0.01500
Br1028     Br  0.16007537  0.21020414  0.29989460    -0.01500
Br1029     Br  0.20448653  0.34080002  0.35196532    -0.01500
Br1030     Br  0.20704701  0.21077030  0.35216560    -0.01500
C1031       C  0.22104232  0.98325077  0.30414115    -0.02600
C1032       C  0.24063516  0.03238721  0.30906538     0.07100
C1033       C  0.29332677  0.04978086  0.30539108    -0.02700
C1034       C  0.31795565  0.02776885  0.29492005    -0.02700
C1035       C  0.29251331  0.98530409  0.28868075     0.07200
C1036       C  0.24447146  0.96231588  0.29347000    -0.02900
Br1037     Br  0.20799133  0.90387427  0.28513910    -0.01500
Br1038     Br  0.17254462  0.93649777  0.31331497    -0.01500
Br1039     Br  0.38768335  0.05430120  0.28943490    -0.01500
Br1040     Br  0.33638673  0.09715660  0.31550997    -0.01500
C1041       C  0.24564159  0.47255156  0.37279833    -0.02600
C1042       C  0.19870934  0.47695759  0.38018699     0.07100
C1043       C  0.14849235  0.48478200  0.37436159    -0.02700
C1044       C  0.14394596  0.48224495  0.36155478    -0.02700
C1045       C  0.19015588  0.47452602  0.35412622     0.07200
C1046       C  0.24145797  0.47101120  0.35989812    -0.02900
Br1047     Br  0.30640277  0.45791262  0.35042825    -0.01500
Br1048     Br  0.31608288  0.46615676  0.38021218    -0.01500
Br1049     Br  0.07334348  0.49044058  0.35446741    -0.01500
Br1050     Br  0.08557787  0.50411855  0.38370921    -0.01500
C1051       C  0.16799568  0.03079015  0.37204964    -0.02600
C1052       C  0.20976474  0.05601812  0.37867070     0.07100
C1053       C  0.25584439  0.07461131  0.37221998    -0.02700
C1054       C  0.25304068  0.08220900  0.35948276    -0.02700
C1055       C  0.20633656  0.06552646  0.35320386     0.07200
C1056       C  0.16928676  0.03153401  0.35924332    -0.02900
Br1057     Br  0.12488282  0.98210638  0.34996531    -0.01500
Br1058     Br  0.10985127  0.99397098  0.38015078    -0.01500
Br1059     Br  0.31326138  0.11364369  0.35067411    -0.01500
Br1060     Br  0.32305705  0.08656608  0.38059949    -0.01500
C1061       C  0.18892457  0.29485468  0.41620472    -0.02600
C1062       C  0.20944691  0.32478400  0.40616876     0.07100
C1063       C  0.22734372  0.29678696  0.39576905    -0.02700
C1064       C  0.22559875  0.23976791  0.39541237    -0.02700
C1065       C  0.20403228  0.20959670  0.40525631     0.07200
C1066       C  0.18436329  0.23809362  0.41554413    -0.02900
Br1067     Br  0.14422857  0.20094314  0.42813242    -0.01500
Br1068     Br  0.16054027  0.33154630  0.43041081    -0.01500
Br1069     Br  0.25467724  0.20383865  0.38151403    -0.01500
Br1070     Br  0.25603992  0.33649917  0.38211196    -0.01500
C1071       C  0.86440555  0.50317571  0.37434134    -0.02600
C1072       C  0.81890209  0.48569981  0.38110306     0.07100
C1073       C  0.76961854  0.47715795  0.37494015    -0.02700
C1074       C  0.76748867  0.48096619  0.36207528    -0.02700
C1075       C  0.81429872  0.49479881  0.35519046     0.07200
C1076       C  0.86204227  0.50801357  0.36154529    -0.02900
Br1077     Br  0.92496375  0.53357555  0.35289957    -0.01500
Br1078     Br  0.93035475  0.52188029  0.38250615    -0.01500
Br1079     Br  0.70096365  0.46237666  0.35410321    -0.01500
Br1080     Br  0.70563395  0.45538799  0.38395214    -0.01500
C1081       C  0.98571095  0.40352855  0.40681491    -0.02600
C1082       C  0.95708990  0.45192483  0.40890731     0.07100
C1083       C  0.98719106  0.49950551  0.41151563    -0.02700
C1084       C  0.04414740  0.49779019  0.41250756    -0.02700
C1085       C  0.07280565  0.44881963  0.41050827     0.07200
C1086       C  0.04241986  0.40200863  0.40765814    -0.02900
Br1087     Br  0.07615090  0.33325939  0.40521875    -0.01500
Br1088     Br  0.94934382  0.33703255  0.40288649    -0.01500
Br1089     Br  0.08148376  0.56543525  0.41520053    -0.01500
Br1090     Br  0.95214661  0.56961000  0.41235781    -0.01500
C1091       C  0.82650530  0.03112323  0.37049410    -0.02600
C1092       C  0.79368259  0.06264969  0.37819267     0.07100
C1093       C  0.75085028  0.09238251  0.37310833    -0.02700
C1094       C  0.74882217  0.10011105  0.36037208    -0.02700
C1095       C  0.78729995  0.07490262  0.35278673     0.07200
C1096       C  0.82050902  0.03455703  0.35777219    -0.02900
Br1097     Br  0.85782642  0.98433559  0.34722654    -0.01500
Br1098     Br  0.88146214  0.98556815  0.37719026    -0.01500
Br1099     Br  0.69320888  0.14408940  0.35342444    -0.01500
Br1100     Br  0.69692905  0.12463292  0.38360403    -0.01500
C1101       C  0.97879757  0.03258580  0.40452399    -0.02600
C1102       C  0.94977603  0.08104862  0.40231117     0.07100
C1103       C  0.97995764  0.12887331  0.40001767    -0.02700
C1104       C  0.03686630  0.12931590  0.40092383    -0.02700
C1105       C  0.06574766  0.08201603  0.40406242     0.07200
C1106       C  0.03574176  0.03315400  0.40570797    -0.02900
Br1107     Br  0.07062669  0.96461150  0.40919829    -0.01500
Br1108     Br  0.94193322  0.96317814  0.40516078    -0.01500
Br1109     Br  0.07299458  0.19777855  0.39875419    -0.01500
Br1110     Br  0.94571734  0.19635438  0.39601624    -0.01500
C1111       C  0.81043989  0.24458778  0.39357873    -0.02600
C1112       C  0.82038933  0.21228951  0.40403969     0.07100
C1113       C  0.83673167  0.23904350  0.41480050    -0.02700
C1114       C  0.83536153  0.29580392  0.41567616    -0.02700
C1115       C  0.81937317  0.32799075  0.40565222     0.07200
C1116       C  0.80911273  0.30174875  0.39444717    -0.02900
Br1117     Br  0.79429997  0.34344643  0.38001159    -0.01500
Br1118     Br  0.80396937  0.21293824  0.37765194    -0.01500
Br1119     Br  0.86502261  0.32869294  0.43006124    -0.01500
Br1120     Br  0.87193844  0.19927290  0.42760803    -0.01500
C1121       C  0.25541740  0.58742067  0.05523156    -0.02600
C1122       C  0.27366201  0.53316118  0.05380137     0.07100
C1123       C  0.27649463  0.51270188  0.04159895    -0.02700
C1124       C  0.25078979  0.54011627  0.03199766    -0.02700
C1125       C  0.22495708  0.58943584  0.03419133     0.07200
C1126       C  0.22821512  0.61366765  0.04568990    -0.02900
Br1127     Br  0.19619361  0.68403147  0.04818393    -0.01500
Br1128     Br  0.27586794  0.63183593  0.06887269    -0.01500
Br1129     Br  0.24786603  0.50839701  0.01587505    -0.01500
Br1130     Br  0.31945787  0.45079017  0.03701587    -0.01500
C1131       C  0.18025646  0.03671315  0.06097019    -0.02600
C1132       C  0.23203958  0.06106542  0.05936147     0.07100
C1133       C  0.25237690  0.06487406  0.04719241    -0.02700
C1134       C  0.23084070  0.03231071  0.03791182    -0.02700
C1135       C  0.18449822  0.00037709  0.04015220     0.07200
C1136       C  0.15743081  0.00527266  0.05151834    -0.02900
Br1137     Br  0.08869828  0.96941250  0.05425598    -0.01500
Br1138     Br  0.13378369  0.05652387  0.07447191    -0.01500
Br1139     Br  0.26311310  0.03536032  0.02177692    -0.01500
Br1140     Br  0.30493817  0.11977633  0.04248839    -0.01500
C1141       C  0.72938696  0.58037026  0.06340869    -0.02600
C1142       C  0.74557721  0.52703254  0.06657848     0.07100
C1143       C  0.79490607  0.50817986  0.06148256    -0.02700
C1144       C  0.81693866  0.53327690  0.05103253    -0.02700
C1145       C  0.79354570  0.58099376  0.04645498     0.07200
C1146       C  0.75203783  0.60622376  0.05310047    -0.02900
Br1147     Br  0.72781525  0.67729765  0.04831517    -0.01500
Br1148     Br  0.68295646  0.62241103  0.07392608    -0.01500
Br1149     Br  0.87675692  0.49951612  0.04256423    -0.01500
Br1150     Br  0.83746355  0.45396266  0.06968387    -0.01500
C1151       C  0.72797978  0.95716802  0.05116474    -0.02600
C1152       C  0.77580557  0.97889516  0.04613124     0.07100
C1153       C  0.80186899  0.02203848  0.05216807    -0.02700
C1154       C  0.77707726  0.04647838  0.06237135    -0.02700
C1155       C  0.72366531  0.03133984  0.06591891     0.07200
C1156       C  0.70419558  0.98133047  0.06148600    -0.02900
Br1157     Br  0.65655363  0.93802222  0.07133144    -0.01500
Br1158     Br  0.69674282  0.89212523  0.04444753    -0.01500
Br1159     Br  0.82084234  0.09288322  0.07256419    -0.01500
Br1160     Br  0.87026156  0.05018784  0.04619925    -0.01500
C1161       C  0.89223122  0.74333037  0.58205253    -0.02600
C1162       C  0.84492928  0.71129012  0.58087216     0.07100
C1163       C  0.79487813  0.73903145  0.58015834    -0.02700
C1164       C  0.79362387  0.79606633  0.57916695    -0.02700
C1165       C  0.84203554  0.82602906  0.57743111     0.07200
C1166       C  0.89141213  0.79812959  0.57876155    -0.02900
Br1167     Br  0.95995507  0.83112938  0.57511053    -0.01500
Br1168     Br  0.95704266  0.71913059  0.59009204    -0.01500
Br1169     Br  0.72565217  0.83218585  0.58155576    -0.01500
Br1170     Br  0.72719919  0.70056285  0.58218726    -0.01500
C1171       C  0.04647538  0.00031854  0.58498120    -0.02600
C1172       C  0.07927582  0.97353615  0.57633964     0.07100
C1173       C  0.05406682  0.94927220  0.56610194    -0.02700
C1174       C  0.99732377  0.94924990  0.56501831    -0.02700
C1175       C  0.96532072  0.97217638  0.57427630     0.07200
C1176       C  0.99025250  0.00348248  0.58329469    -0.02900
Br1177     Br  0.94850265  0.05702047  0.59198391    -0.01500
Br1178     Br  0.07621725  0.02983897  0.59958306    -0.01500
Br1179     Br  0.96332582  0.91929042  0.55068642    -0.01500
Br1180     Br  0.09575415  0.91012719  0.55418437    -0.01500
C1181       C  0.06448919  0.53770957  0.57647480    -0.02600
C1182       C  0.09118971  0.58775636  0.57479040     0.07100
C1183       C  0.06247861  0.63081485  0.56948895    -0.02700
C1184       C  0.00569900  0.62835059  0.56899402    -0.02700
C1185       C  0.97834895  0.58322061  0.57393820     0.07200
C1186       C  0.00776727  0.53556948  0.57617264    -0.02900
Br1187     Br  0.97104148  0.46683464  0.57796619    -0.01500
Br1188     Br  0.10506598  0.47144499  0.57818048    -0.01500
Br1189     Br  0.96631876  0.68149601  0.55973001    -0.01500
Br1190     Br  0.10096256  0.68792198  0.56103389    -0.01500
C1191       C  0.16667266  0.75711876  0.58476174    -0.02600
C1192       C  0.21493560  0.72744258  0.58234808     0.07100
C1193       C  0.26338313  0.75819406  0.58096603    -0.02700
C1194       C  0.26221259  0.81526715  0.57958167    -0.02700
C1195       C  0.21245391  0.84407215  0.58028892     0.07200
C1196       C  0.16517130  0.81383475  0.58315459    -0.02900
Br1197     Br  0.09508543  0.84745712  0.58401164    -0.01500
Br1198     Br  0.10112962  0.72501779  0.59132385    -0.01500
Br1199     Br  0.33087805  0.85235460  0.57723568    -0.01500
Br1200     Br  0.33307728  0.72394155  0.58303860    -0.01500
C1201       C  0.24589465  0.96354700  0.62456129    -0.02600
C1202       C  0.21136542  0.00229161  0.62979726     0.07100
C1203       C  0.19379408  0.04543178  0.62242069    -0.02700
C1204       C  0.20317974  0.04431259  0.60971066    -0.02700
C1205       C  0.22444068  0.99732863  0.60424826     0.07200
C1206       C  0.24853171  0.95826669  0.61181740    -0.02900
Br1207     Br  0.28687410  0.89837069  0.60501171    -0.01500
Br1208     Br  0.29421103  0.92186113  0.63464940    -0.01500
Br1209     Br  0.18915388  0.10784078  0.60007525    -0.01500
Br1210     Br  0.15952091  0.10711954  0.62963322    -0.01500
C1211       C  0.78068151  0.97842496  0.62340990    -0.02600
C1212       C  0.82858112  0.98995365  0.62997598     0.07100
C1213       C  0.87795965  0.99110399  0.62352532    -0.02700
C1214       C  0.88178365  0.96990675  0.61179175    -0.02700
C1215       C  0.83445356  0.96357901  0.60469798     0.07200
C1216       C  0.78359005  0.96671678  0.61078920    -0.02900
Br1217     Br  0.71785288  0.94579155  0.60252273    -0.01500
Br1218     Br  0.71045874  0.97763284  0.63127871    -0.01500
Br1219     Br  0.95155423  0.93913438  0.60788475    -0.01500
Br1220     Br  0.94188076  0.02363961  0.63028494    -0.01500
C1221       C  0.98419787  0.03726788  0.65894612    -0.02600
C1222       C  0.95656873  0.98934112  0.66216405     0.07100
C1223       C  0.98584102  0.94715271  0.66738844    -0.02700
C1224       C  0.04238317  0.94573258  0.66601904    -0.02700
C1225       C  0.07105030  0.99092571  0.66127953     0.07200
C1226       C  0.04133056  0.03827706  0.65868217    -0.02900
Br1227     Br  0.07772901  0.10485214  0.65483568    -0.01500
Br1228     Br  0.94437607  0.10238550  0.65566002    -0.01500
Br1229     Br  0.07764675  0.88045495  0.67045081    -0.01500
Br1230     Br  0.94842798  0.89473600  0.67757899    -0.01500
C1231       C  0.16773280  0.57258424  0.62604255    -0.02600
C1232       C  0.21211347  0.59263578  0.63258463     0.07100
C1233       C  0.26104958  0.60360929  0.62619842    -0.02700
C1234       C  0.26469856  0.59597887  0.61341662    -0.02700
C1235       C  0.21881209  0.57929413  0.60674937     0.07200
C1236       C  0.17088113  0.56634049  0.61329948    -0.02900
Br1237     Br  0.10840045  0.53887715  0.60509863    -0.01500
Br1238     Br  0.10207170  0.55248944  0.63443667    -0.01500
Br1239     Br  0.33225704  0.61132686  0.60515680    -0.01500
Br1240     Br  0.32175289  0.63499903  0.63463303    -0.01500
C1241       C  0.20095671  0.83206031  0.66842409    -0.02600
C1242       C  0.19666991  0.85903257  0.65696215     0.07100
C1243       C  0.19184040  0.82687297  0.64629301    -0.02700
C1244       C  0.19978155  0.77040022  0.64687072    -0.02700
C1245       C  0.20409304  0.74365038  0.65824662     0.07200
C1246       C  0.20184318  0.77531731  0.66899409    -0.02900
Br1247     Br  0.19191932  0.74260719  0.68481012    -0.01500
Br1248     Br  0.19878752  0.87080147  0.68397022    -0.01500
Br1249     Br  0.20836613  0.73152096  0.63174106    -0.01500
Br1250     Br  0.17152530  0.85667036  0.63069520    -0.01500
C1251       C  0.88417737  0.55059758  0.62448479    -0.02600
C1252       C  0.83582484  0.56605143  0.63034865     0.07100
C1253       C  0.78938981  0.57476081  0.62312390    -0.02700
C1254       C  0.79225768  0.57058008  0.61027243    -0.02700
C1255       C  0.84236988  0.56055542  0.60439295     0.07200
C1256       C  0.88807393  0.55002635  0.61168670    -0.02900
Br1257     Br  0.95779221  0.53666650  0.60452186    -0.01500
Br1258     Br  0.94591374  0.52913081  0.63386780    -0.01500
Br1259     Br  0.72770236  0.58370995  0.60091156    -0.01500
Br1260     Br  0.72246365  0.59779754  0.63044199    -0.01500
C1261       C  0.78955456  0.75928320  0.64959588    -0.02600
C1262       C  0.83835060  0.72964604  0.64951452     0.07100
C1263       C  0.88654058  0.75956386  0.64719132    -0.02700
C1264       C  0.88801460  0.81597370  0.64940348    -0.02700
C1265       C  0.83953824  0.84469033  0.65223921     0.07200
C1266       C  0.79022516  0.81614687  0.65062101    -0.02900
Br1267     Br  0.72362100  0.85442683  0.64801540    -0.01500
Br1268     Br  0.72156909  0.72280872  0.64663693    -0.01500
Br1269     Br  0.95838852  0.84984329  0.64836620    -0.01500
Br1270     Br  0.94957723  0.72786440  0.63946564    -0.01500
C1271       C  0.04459162  0.65414785  0.66397674    -0.02600
C1272       C  0.07683372  0.60717757  0.66291398     0.07100
C1273       C  0.05012447  0.55608425  0.66314445    -0.02700
C1274       C  0.99287349  0.55307403  0.66271341    -0.02700
C1275       C  0.96183961  0.60078461  0.66226967     0.07200
C1276       C  0.98782501  0.65015333  0.66456809    -0.02900
Br1277     Br  0.94632354  0.70926615  0.67118168    -0.01500
Br1278     Br  0.07597078  0.72485358  0.66515685    -0.01500
Br1279     Br  0.95699960  0.48362006  0.66348674    -0.01500
Br1280     Br  0.09067106  0.48943408  0.66340446    -0.01500
C1281       C  0.34341536  0.50775045  0.68343035    -0.02600
C1282       C  0.32830183  0.51188118  0.69576802     0.07100
C1283       C  0.28672052  0.54742416  0.69915890    -0.02700
C1284       C  0.25670010  0.57458524  0.69017006    -0.02700
C1285       C  0.26955416  0.56881857  0.67747871     0.07200
C1286       C  0.31809356  0.54028264  0.67457250    -0.02900
Br1287     Br  0.36073137  0.55579415  0.66014968    -0.01500
Br1288     Br  0.40070655  0.45902432  0.67867533    -0.01500
Br1289     Br  0.19884855  0.61973666  0.69610097    -0.01500
Br1290     Br  0.26777158  0.55609525  0.71626733    -0.01500
C1291       C  0.77896093  0.58640673  0.68760726    -0.02600
C1292       C  0.76667059  0.57266660  0.67530071     0.07100
C1293       C  0.71766823  0.54343687  0.67336908    -0.02700
C1294       C  0.69167133  0.51652297  0.68319122    -0.02700
C1295       C  0.71129735  0.52199899  0.69513484     0.07200
C1296       C  0.75288947  0.55957649  0.69740441    -0.02900
Br1297     Br  0.77699672  0.57187102  0.71390124    -0.01500
Br1298     Br  0.82896637  0.64433680  0.69141931    -0.01500
Br1299     Br  0.62646143  0.47484917  0.68050656    -0.01500
Br1300     Br  0.67712123  0.55037239  0.65850893    -0.01500
C1301       C  0.74927030  0.09632578  0.68706159    -0.02600
C1302       C  0.70899953  0.06868185  0.69381980     0.07100
C1303       C  0.69053897  0.01811369  0.68964021    -0.02700
C1304       C  0.71596696  0.99295554  0.67952534    -0.02700
C1305       C  0.76168794  0.01757896  0.67377031     0.07200
C1306       C  0.77177245  0.07279040  0.67657719    -0.02900
Br1307     Br  0.81253313  0.11940411  0.66567394    -0.01500
Br1308     Br  0.77830033  0.16490016  0.69255536    -0.01500
Br1309     Br  0.67786359  0.93388868  0.67205194    -0.01500
Br1310     Br  0.62770994  0.98517300  0.69724341    -0.01500
C1311       C  0.24992852  0.08854085  0.67807764    -0.02600
C1312       C  0.26585570  0.03909263  0.67280108     0.07100
C1313       C  0.31699510  0.01783963  0.67625230    -0.02700
C1314       C  0.34230470  0.03638975  0.68696424    -0.02700
C1315       C  0.31890754  0.07870912  0.69368979     0.07200
C1316       C  0.27352415  0.10596353  0.68896017    -0.02900
Br1317     Br  0.23995612  0.16498873  0.69770341    -0.01500
Br1318     Br  0.20204425  0.13704525  0.66959179    -0.01500
Br1319     Br  0.41050205  0.00618765  0.69201707    -0.01500
Br1320     Br  0.35880539  0.97331748  0.66520333    -0.01500
C1321       C  0.75973522  0.53246989  0.53806509    -0.02600
C1322       C  0.74317394  0.47862919  0.53967243     0.07100
C1323       C  0.75711069  0.45048217  0.55027969    -0.02700
C1324       C  0.78665595  0.47656990  0.55950458    -0.02700
C1325       C  0.79720181  0.53338027  0.55878352     0.07200
C1326       C  0.78924685  0.55885480  0.54722288    -0.02900
Br1327     Br  0.82704432  0.62447011  0.54240772    -0.01500
Br1328     Br  0.74123575  0.57053402  0.52324306    -0.01500
Br1329     Br  0.82178931  0.43002298  0.57123988    -0.01500
Br1330     Br  0.73794960  0.37488776  0.55175839    -0.01500
C1331       C  0.71021497  0.57306721  0.43461439    -0.02600
C1332       C  0.73408449  0.57249132  0.44622714     0.07100
C1333       C  0.77657288  0.53651688  0.44857707    -0.02700
C1334       C  0.79570851  0.50203846  0.43931622    -0.02700
C1335       C  0.77579647  0.50596435  0.42712596     0.07200
C1336       C  0.72874642  0.53809889  0.42535319    -0.02900
Br1337     Br  0.67987181  0.52576655  0.41197566    -0.01500
Br1338     Br  0.65172212  0.62270011  0.43133383    -0.01500
Br1339     Br  0.84384199  0.44525186  0.44439908    -0.01500
Br1340     Br  0.80675504  0.53156134  0.46482525    -0.01500
C1341       C  0.76444328  0.09732454  0.55006043    -0.02600
C1342       C  0.72616896  0.07177451  0.54260508     0.00700
C1343       C  0.70621691  0.02034876  0.54590628    -0.02700
C1344       C  0.72816386  0.99272511  0.55592264    -0.02700
C1345       C  0.77477577  0.01321683  0.56179422     0.07200
C1346       C  0.78755933  0.06884617  0.55987363    -0.02900
Br1347     Br  0.83273978  0.10833618  0.57114844    -0.01500
Br1348     Br  0.78318157  0.17205782  0.54710913    -0.01500
Br1349     Br  0.68410254  0.93724492  0.56336178    -0.01500
Br1350     Br  0.64947558  0.98640416  0.53653882    -0.01500
C1351       C  0.69709320  0.98233736  0.43376950    -0.02600
C1352       C  0.72674345  0.97456703  0.44458004     0.07100
C1353       C  0.77817306  0.99842159  0.44563825    -0.02700
C1354       C  0.79960284  0.03024160  0.43607073    -0.02700
C1355       C  0.77298530  0.03363666  0.42453058     0.07200
C1356       C  0.71887563  0.01333155  0.42403274    -0.02900
Br1357     Br  0.66888827  0.03565422  0.41149218    -0.01500
Br1358     Br  0.62624229  0.94946429  0.43213929    -0.01500
Br1359     Br  0.85966293  0.07642950  0.44042667    -0.01500
Br1360     Br  0.81832661  0.99156715  0.46072494    -0.01500
C1361       C  0.31731663  0.46620484  0.55237058    -0.02600
C1362       C  0.32205317  0.49138046  0.54094015     0.07100
C1363       C  0.30429906  0.54467687  0.53947306    -0.02700
C1364       C  0.27893684  0.57207481  0.54918877    -0.02700
C1365       C  0.27656950  0.54888025  0.56119293     0.07200
C1366       C  0.29194666  0.49311731  0.56222778    -0.02900
Br1367     Br  0.26767790  0.44665353  0.57543889    -0.01500
Br1368     Br  0.34277882  0.39275002  0.55418041    -0.01500
Br1369     Br  0.23755746  0.63529550  0.54459790    -0.01500
Br1370     Br  0.31611172  0.58094404  0.52399912    -0.01500
C1371       C  0.28196021  0.48258448  0.43569616    -0.02600
C1372       C  0.25832389  0.50757598  0.42519599     0.07100
C1373       C  0.25732523  0.56558511  0.42512802    -0.02700
C1374       C  0.28350964  0.59572230  0.43436260    -0.02700
C1375       C  0.31301549  0.56939770  0.44347306     0.07200
C1376       C  0.31331310  0.51285336  0.44392100    -0.02900
Br1377     Br  0.35301213  0.47667246  0.45675648    -0.01500
Br1378     Br  0.26093188  0.41210161  0.44169049    -0.01500
Br1379     Br  0.27889253  0.67367900  0.43477401    -0.01500
Br1380     Br  0.21615859  0.60660813  0.41342264    -0.01500
C1381       C  0.29029757  0.02459715  0.53669798    -0.02600
C1382       C  0.30863519  0.07782688  0.53799055     0.07100
C1383       C  0.29968675  0.10548586  0.54893371    -0.02700
C1384       C  0.27208981  0.07984331  0.55867809    -0.02700
C1385       C  0.25777452  0.02379652  0.55801286     0.07200
C1386       C  0.26209988  0.99889843  0.54627828    -0.02900
Br1387     Br  0.22142995  0.93528929  0.54172455    -0.01500
Br1388     Br  0.30525315  0.98598301  0.52173043    -0.01500
Br1389     Br  0.24506107  0.12689253  0.57129451    -0.01500
Br1390     Br  0.32349672  0.17986195  0.55023363    -0.01500
C1391       C  0.31579428  0.96811740  0.43186942    -0.02600
C1392       C  0.29477992  0.96987273  0.44382897     0.07100
C1393       C  0.25039131  0.00351951  0.44638665    -0.02700
C1394       C  0.22503747  0.03246528  0.43692168    -0.02700
C1395       C  0.24442227  0.02906786  0.42460862     0.07200
C1396       C  0.29429766  0.00146938  0.42270596    -0.02900
Br1397     Br  0.34340710  0.01996788  0.40950571    -0.01500
Br1398     Br  0.37508831  0.92026991  0.42788943    -0.01500
Br1399     Br  0.16870038  0.08171867  0.44187659    -0.01500
Br1400     Br  0.22751193  0.01492886  0.46316963    -0.01500
C1401       C  0.27178471  0.01067433  0.93896613    -0.02600
C1402       C  0.25654310  0.01074549  0.92646375     0.07100
C1403       C  0.20645266  0.03600528  0.92360939    -0.02700
C1404       C  0.18120977  0.07074593  0.93213784    -0.02700
C1405       C  0.20222317  0.07666037  0.94402547     0.07200
C1406       C  0.24735837  0.04567383  0.94742026    -0.02900
Br1407     Br  0.27389639  0.04668639  0.96404704    -0.01500
Br1408     Br  0.31704295  0.95475889  0.94557653    -0.01500
Br1409     Br  0.11719980  0.11009138  0.92737521    -0.01500
Br1410     Br  0.16212689  0.01171043  0.91019203    -0.01500
C1411       C  0.53268952  0.97947492  0.90036950    -0.02600
C1412       C  0.56095269  0.95607959  0.91007613     0.07100
C1413       C  0.53155150  0.93479677  0.92004501    -0.02700
C1414       C  0.47576698  0.94376044  0.92111183    -0.02700
C1415       C  0.44635634  0.96291277  0.91099911     0.07200
C1416       C  0.47565307  0.98002010  0.90052532    -0.02900
Br1417     Br  0.43922920  0.00624533  0.88642883    -0.01500
Br1418     Br  0.57196407  0.01094563  0.88690308    -0.01500
Br1419     Br  0.44169473  0.92753756  0.93649647    -0.01500
Br1420     Br  0.56438181  0.88351416  0.93091345    -0.01500
C1421       C  0.79249119  0.01499903  0.92928177    -0.02600
C1422       C  0.74003553  0.99159984  0.93042439     0.07100
C1423       C  0.71604842  0.99183433  0.94227965    -0.02700
C1424       C  0.73670616  0.02489985  0.95157248    -0.02700
C1425       C  0.78322230  0.05643041  0.94942719     0.07200
C1426       C  0.81194090  0.05025993  0.93835426    -0.02900
Br1427     Br  0.87782337  0.09069174  0.93538389    -0.01500
Br1428     Br  0.84513791  0.98719676  0.91778175    -0.01500
Br1429     Br  0.70323984  0.02343638  0.96763334    -0.01500
Br1430     Br  0.65996733  0.94169256  0.94685468    -0.01500
C1431       C  0.25515180  0.74671676  0.90927301    -0.02600
C1432       C  0.30131106  0.71466092  0.91118617     0.07100
C1433       C  0.34828652  0.73894094  0.91560907    -0.02700
C1434       C  0.35540319  0.79480357  0.91450711    -0.02700
C1435       C  0.31125962  0.82799291  0.91141862     0.07200
C1436       C  0.26003363  0.80346808  0.90935956    -0.02900
Br1437     Br  0.19741438  0.84647719  0.90533531    -0.01500
Br1438     Br  0.18487690  0.71330728  0.90733484    -0.01500
Br1439     Br  0.42675698  0.82274997  0.91669285    -0.01500
Br1440     Br  0.39633645  0.69751349  0.92578291    -0.01500
C1441       C  0.17166242  0.47907843  0.93121127    -0.02600
C1442       C  0.19687550  0.47082178  0.94261245     0.07100
C1443       C  0.24881389  0.49299565  0.94453924    -0.02700
C1444       C  0.27418147  0.52434406  0.93539300    -0.02700
C1445       C  0.25153421  0.52857173  0.92345097     0.07200
C1446       C  0.19729214  0.51012839  0.92199006    -0.02900
Br1447     Br  0.15103328  0.53772817  0.90923215    -0.01500
Br1448     Br  0.10119900  0.44784831  0.92795544    -0.01500
Br1449     Br  0.33372743  0.57021095  0.94066070    -0.01500
Br1450     Br  0.28498356  0.48491989  0.96009700    -0.01500
C1451       C  0.73119984  0.73153657  0.90793362    -0.02600
C1452       C  0.68385077  0.70389428  0.90433333     0.07100
C1453       C  0.64123046  0.73639053  0.89993457    -0.02700
C1454       C  0.63760984  0.79103523  0.90342719    -0.02700
C1455       C  0.68255901  0.81789002  0.90879354     0.07200
C1456       C  0.73075310  0.78744986  0.91040888    -0.02900
Br1457     Br  0.79933308  0.82127103  0.91452036    -0.01500
Br1458     Br  0.79987082  0.69634233  0.90602633    -0.01500
Br1459     Br  0.56760860  0.82429077  0.90149182    -0.01500
Br1460     Br  0.59554469  0.71414125  0.88662555    -0.01500
C1461       C  0.51497190  0.52760392  0.90758530    -0.02600
C1462       C  0.54668226  0.57482378  0.90874426     0.07100
C1463       C  0.52065053  0.62484394  0.90847487    -0.02700
C1464       C  0.46710251  0.62909402  0.90453177    -0.02700
C1465       C  0.43319650  0.58268999  0.90440955     0.07200
C1466       C  0.45878715  0.53137427  0.90542829    -0.02900
Br1467     Br  0.41957988  0.46509654  0.90230853    -0.01500
Br1468     Br  0.54668484  0.45731989  0.90975294    -0.01500
Br1469     Br  0.44883339  0.69723867  0.89715557    -0.01500
Br1470     Br  0.55124285  0.68445392  0.91728086    -0.01500
C1471       C  0.71316643  0.47183002  0.93055860    -0.02600
C1472       C  0.72788294  0.52569651  0.92727793     0.07100
C1473       C  0.77066497  0.54980557  0.93388331    -0.02700
C1474       C  0.78605104  0.52883219  0.94522922    -0.02700
C1475       C  0.76645267  0.47821195  0.94914080     0.07200
C1476       C  0.73153382  0.44875825  0.94156323    -0.02900
Br1477     Br  0.71155500  0.37559307  0.94592516    -0.01500
Br1478     Br  0.67482754  0.42589008  0.91936201    -0.01500
Br1479     Br  0.83433966  0.57048962  0.95540785    -0.01500
Br1480     Br  0.82285197  0.59588084  0.92592955    -0.01500
C1481       C  0.30778426  0.91717635  0.86182800    -0.02600
C1482       C  0.31433327  0.96674290  0.85560492     0.07100
C1483       C  0.31738007  0.01458201  0.86260656    -0.02700
C1484       C  0.31445378  0.01260630  0.87553561    -0.02700
C1485       C  0.31197304  0.96207769  0.88178024     0.07200
C1486       C  0.30881870  0.91449044  0.87466353    -0.02900
Br1487     Br  0.30493084  0.84382883  0.88199996    -0.01500
Br1488     Br  0.29335868  0.85193857  0.85301626    -0.01500
Br1489     Br  0.31988123  0.08005000  0.88438581    -0.01500
Br1490     Br  0.33137997  0.08293287  0.85463919    -0.01500
C1491       C  0.27898183  0.00552418  0.79784826    -0.02600
C1492       C  0.27682010  0.02342144  0.81029527     0.07100
C1493       C  0.24736812  0.07165708  0.81266956    -0.02700
C1494       C  0.21326855  0.09406063  0.80366616    -0.02700
C1495       C  0.21147550  0.07183882  0.79182224     0.07200
C1496       C  0.24567305  0.02854696  0.78889735    -0.02900
Br1497     Br  0.25140722  0.00359671  0.77211608    -0.01500
Br1498     Br  0.33080094  0.95325130  0.79187623    -0.01500
Br1499     Br  0.16905603  0.15600213  0.80762768    -0.01500
Br1500     Br  0.26153302  0.11552904  0.82683318    -0.01500
C1501       C  0.71246693  0.01085574  0.86449127    -0.02600
C1502       C  0.71268823  0.96140792  0.85787283     0.07100
C1503       C  0.71534026  0.91277008  0.86468827    -0.02700
C1504       C  0.72399857  0.91397394  0.87724793    -0.02700
C1505       C  0.71573647  0.96133131  0.88393739     0.07200
C1506       C  0.71159615  0.01060731  0.87747594    -0.02900
Br1507     Br  0.70322449  0.07743507  0.88629078    -0.01500
Br1508     Br  0.70487232  0.07878311  0.85603746    -0.01500
Br1509     Br  0.75453415  0.85131660  0.88481788    -0.01500
Br1510     Br  0.69916437  0.84260822  0.85830656    -0.01500
C1511       C  0.54666148  0.98151300  0.83912028    -0.02600
C1512       C  0.57699087  0.97434431  0.82824201     0.07100
C1513       C  0.54868923  0.97251644  0.81704771    -0.02700
C1514       C  0.49167077  0.97373146  0.81689758    -0.02700
C1515       C  0.46130532  0.97934417  0.82783206     0.07200
C1516       C  0.48965451  0.98444962  0.83888610    -0.02900
Br1517     Br  0.45109367  0.99782375  0.85385347    -0.01500
Br1518     Br  0.58202894  0.99096370  0.85451657    -0.01500
Br1519     Br  0.45663035  0.96040226  0.80159960    -0.01500
Br1520     Br  0.58610775  0.96478106  0.80160964    -0.01500
C1521       C  0.79425163  0.05851568  0.81403785    -0.02600
C1522       C  0.76610748  0.00874198  0.81225152     0.07100
C1523       C  0.76316310  0.98902581  0.79990048    -0.02700
C1524       C  0.79110814  0.01512219  0.79027300    -0.02700
C1525       C  0.82190288  0.06179789  0.79247455     0.07200
C1526       C  0.82447114  0.08252203  0.80442173    -0.02900
Br1527     Br  0.87012467  0.14451559  0.80767638    -0.01500
Br1528     Br  0.78328407  0.10262097  0.82830898    -0.01500
Br1529     Br  0.78263720  0.98934904  0.77364658    -0.01500
Br1530     Br  0.71659259  0.92961438  0.79495150    -0.01500
C1531       C  0.30997907  0.54604742  0.85884620    -0.02600
C1532       C  0.29844718  0.59450482  0.85258883     0.07100
C1533       C  0.28223985  0.64001070  0.85929878    -0.02700
C1534       C  0.27889878  0.63787757  0.87209819    -0.02700
C1535       C  0.29086609  0.58977416  0.87849428     0.07200
C1536       C  0.30506005  0.54331102  0.87169278    -0.02900
Br1537     Br  0.32091189  0.47614272  0.87976950    -0.01500
Br1538     Br  0.33766829  0.48468126  0.84998806    -0.01500
Br1539     Br  0.25699910  0.70187783  0.88057730    -0.01500
Br1540     Br  0.26471621  0.70617423  0.85102975    -0.01500
C1541       C  0.28643391  0.75526827  0.82282315    -0.02600
C1542       C  0.33557211  0.72629197  0.82343964     0.07100
C1543       C  0.38477048  0.75464805  0.82403293    -0.02700
C1544       C  0.38520468  0.81125933  0.82487274    -0.02700
C1545       C  0.33614669  0.84045098  0.82507254     0.07200
C1546       C  0.28646259  0.81173126  0.82407305    -0.02900
Br1547     Br  0.21699422  0.84749537  0.82590268    -0.01500
Br1548     Br  0.21775587  0.71861183  0.82073076    -0.01500
Br1549     Br  0.45411750  0.84715054  0.82518377    -0.01500
Br1550     Br  0.45211145  0.71634059  0.82235591    -0.01500
C1551       C  0.30497714  0.54237018  0.79529176    -0.02600
C1552       C  0.27791136  0.55049756  0.80674179     0.07100
C1553       C  0.21998255  0.54641553  0.80677034    -0.02700
C1554       C  0.19283548  0.52338018  0.79680274    -0.02700
C1555       C  0.22167121  0.50856299  0.78634580     0.07200
C1556       C  0.27723188  0.51933377  0.78540903    -0.02900
Br1557     Br  0.31517495  0.50305289  0.77037329    -0.01500
Br1558     Br  0.37688392  0.57046211  0.79178130    -0.01500
Br1559     Br  0.11493919  0.51458606  0.79697086    -0.01500
Br1560     Br  0.17404889  0.58043076  0.81886941    -0.01500
C1561       C  0.65975067  0.52995456  0.86154126    -0.02600
C1562       C  0.70643061  0.55219093  0.85602321     0.07100
C1563       C  0.75060013  0.56555182  0.86350703    -0.02700
C1564       C  0.74505689  0.56410402  0.87634846    -0.02700
C1565       C  0.69483571  0.54999691  0.88177645     0.07200
C1566       C  0.65298094  0.53094632  0.87426682    -0.02900
Br1567     Br  0.58562694  0.50623445  0.88119028    -0.01500
Br1568     Br  0.60714796  0.49283943  0.85191301    -0.01500
Br1569     Br  0.80564861  0.58455502  0.88629322    -0.01500
Br1570     Br  0.81885664  0.58524726  0.85627462    -0.01500
C1571       C  0.65692211  0.74395658  0.82580868    -0.02600
C1572       C  0.69955761  0.71666063  0.83171120     0.07100
C1573       C  0.74574343  0.74640217  0.83518765    -0.02700
C1574       C  0.74785408  0.80274510  0.83345022    -0.02700
C1575       C  0.70167599  0.83045750  0.82922258     0.07200
C1576       C  0.65651024  0.80070364  0.82530701    -0.02900
Br1577     Br  0.59600002  0.83721964  0.81816645    -0.01500
Br1578     Br  0.60409909  0.70486758  0.81638494    -0.01500
Br1579     Br  0.81290624  0.84192224  0.83777267    -0.01500
Br1580     Br  0.80754520  0.70985185  0.84180008    -0.01500
C1581       C  0.53924305  0.53602821  0.82719146    -0.02600
C1582       C  0.56694785  0.58320508  0.83157556     0.07100
C1583       C  0.53538059  0.61972250  0.83883924    -0.02700
C1584       C  0.47958159  0.61090429  0.84045538    -0.02700
C1585       C  0.45183576  0.57594094  0.83259008     0.07200
C1586       C  0.48210574  0.53242952  0.82790447    -0.02900
Br1587     Br  0.44789078  0.46221744  0.82641289    -0.01500
Br1588     Br  0.57673920  0.47186072  0.82152395    -0.01500
Br1589     Br  0.44877033  0.62813469  0.85626031    -0.01500
Br1590     Br  0.56087181  0.68589445  0.84623297    -0.01500
C1591       C  0.73337228  0.55812552  0.79765788    -0.02600
C1592       C  0.75233345  0.55184126  0.80985118     0.07100
C1593       C  0.80729943  0.53550286  0.81118505    -0.02700
C1594       C  0.83557329  0.51200047  0.80134448    -0.02700
C1595       C  0.81215176  0.51006693  0.78973177     0.07200
C1596       C  0.76163126  0.53444570  0.78782774    -0.02900
Br1597     Br  0.72978062  0.53362947  0.77177508    -0.01500
Br1598     Br  0.67610855  0.60801087  0.79355878    -0.01500
Br1599     Br  0.90815271  0.48497719  0.80355531    -0.01500
Br1600     Br  0.84972183  0.55558070  0.82520800    -0.01500
loop_ 
_geom_bond_atom_site_label_1 
_geom_bond_atom_site_label_2 
_geom_bond_distance 
_geom_bond_site_symmetry_2 
_ccdc_geom_bond_type 
C1            C2   1.516       .  S
C1            C7   1.554       .  S
C1            C5   1.553       .  S
C1         C1592   1.547       .  S
C2            H9   1.088       .  S
C2            C3   1.350       .  D
C3            C4   1.553       .  S
C3         C1572   1.485       .  S
C4            C8   1.549       .  S
C4            C6   1.536       .  S
C4           H10   1.096       .  S
C5           H11   1.085       .  S
C5            C6   1.365       .  D
C6         C1562   1.497       .  S
C7           H12   1.078       .  S
C7            C8   1.382       .  D
C8         C1582   1.529       .  S
C13          C14   1.553       .  S
C13          C19   1.546       .  S
C13          C17   1.517       .  S
C13        C1552   1.542       .  S
C14          H21   1.084       .  S
C14          C15   1.368       .  D
C15          C16   1.529       .  S
C15        C1532   1.490       .  S
C16          C20   1.554       .  S
C16          C18   1.541       .  S
C16          H22   1.097       .  S
C17          H23   1.087       .  S
C17          C18   1.345       .  D
C18        C1542   1.484       .  S
C19          H24   1.076       .  S
C19          C20   1.380       .  D
C20        C1585   1.520       .  S
C25          C26   1.536       .  S
C25          C31   1.534       .  S
C25          C29   1.560       .  S
C25        C1522   1.561   1_565  S
C26          H33   1.086   1_565  S
C26          C27   1.363       .  D
C27          C28   1.542       .  S
C27        C1512   1.508       .  S
C28          C32   1.541       .  S
C28          C30   1.549       .  S
C28          H34   1.107       .  S
C29          H35   1.081   1_565  S
C29          C30   1.383       .  D
C30        C1502   1.512       .  S
C31          H36   1.086       .  S
C31          C32   1.354       .  D
C32        C1575   1.486       .  S
C37          C38   1.532       .  S
C37          C43   1.538   1_565  S
C37          C41   1.557       .  S
C37        C1492   1.558   1_565  S
C38          H45   1.083       .  S
C38          C39   1.356       .  D
C39          C40   1.543       .  S
C39        C1545   1.495       .  S
C40          C44   1.549       .  S
C40          C42   1.547       .  S
C40          H46   1.109       .  S
C41          H47   1.082   1_565  S
C41          C42   1.376       .  D
C42        C1482   1.510       .  S
C43          H48   1.086       .  S
C43          C44   1.368   1_545  D
C44        C1515   1.507       .  S
C49          C50   1.540       .  S
C49          C55   1.555       .  S
C49          C53   1.538       .  S
C49        C1472   1.548       .  S
C50          H57   1.086       .  S
C50          C51   1.360       .  D
C51          C52   1.551       .  S
C51        C1462   1.497       .  S
C52          C56   1.549       .  S
C52          C54   1.536       .  S
C52          H58   1.092       .  S
C53          H59   1.086       .  S
C53          C54   1.363       .  D
C54        C1565   1.492       .  S
C55          H60   1.082       .  S
C55          C56   1.379       .  D
C56        C1452   1.527       .  S
C61          C62   1.555       .  S
C61          C67   1.520       .  S
C61          C65   1.543       .  S
C61        C1445   1.546       .  S
C62          H69   1.082       .  S
C62          C63   1.374       .  D
C63          C64   1.538       .  S
C63        C1535   1.502       .  S
C64          C68   1.553       .  S
C64          C66   1.548       .  S
C64          H70   1.100       .  S
C65          H71   1.083       .  S
C65          C66   1.372       .  D
C66        C1465   1.517       .  S
C67          H72   1.087       .  S
C67          C68   1.347       .  D
C68        C1432   1.478       .  S
C73          C74   1.541       .  S
C73          C79   1.537       .  S
C73          C77   1.554       .  S
C73        C1422   1.551       .  S
C74          H81   1.084       .  S
C74          C75   1.373       .  D
C75          C76   1.544       .  S
C75        C1455   1.513       .  S
C76          C80   1.544       .  S
C76          C78   1.538       .  S
C76          H82   1.105       .  S
C77          H83   1.080   1_565  S
C77          C78   1.363       .  D
C78        C1505   1.501       .  S
C79          H84   1.086   1_565  S
C79          C80   1.364       .  D
C80        C1412   1.486       .  S
C85          C86   1.549       .  S
C85          C91   1.526       .  S
C85          C89   1.552       .  S
C85        C1402   1.554   1_565  S
C86          H93   1.086   1_565  S
C86          C87   1.368       .  D
C87          C88   1.544       .  S
C87        C1415   1.500       .  S
C88          C92   1.549       .  S
C88          C90   1.549       .  S
C88          H94   1.109       .  S
C89          H95   1.076   1_565  S
C89          C90   1.373       .  D
C90        C1485   1.515       .  S
C91          H96   1.087       .  S
C91          C92   1.358       .  D
C92        C1435   1.491       .  S
In97         O99   2.274   1_565  S
In97        O100   2.288       .  S
In97        O108   2.239       .  S
In97        O102   2.209       .  S
In97        O104   2.237       .  S
In97        O105   2.323       .  S
In97        O106   2.235       .  S
In97        O109   2.227       .  S
C98         O104   1.260       .  A
C98         O106   1.259       .  A
C98         C150   1.456       .  S
O99         C107   1.255       .  A
O100        C107   1.268   1_565  A
C101        O108   1.269       .  A
C101        O102   1.263       .  A
C101       C1392   1.481       .  S
C103        O105   1.270       .  A
C103        O109   1.258       .  A
C103        C133   1.489       .  S
C107        C120   1.486       .  S
In110       O112   2.254       .  S
In110       O113   2.305       .  S
In110       O121   2.235       .  S
In110       O115   2.219       .  S
In110       O117   2.228       .  S
In110       O118   2.318       .  S
In110       O119   2.256       .  S
In110       O122   2.268       .  S
C111        O117   1.256       .  A
C111        O119   1.259       .  A
C111        C163   1.456       .  S
O112        C120   1.255       .  A
O113        C120   1.270       .  A
C114        O121   1.269       .  A
C114        O115   1.262       .  A
C114       C1382   1.469       .  S
C116        O118   1.264       .  A
C116        O122   1.256       .  A
C116        C146   1.493       .  S
In123       O125   2.234       .  S
In123       O126   2.331       .  S
In123       O134   2.245       .  S
In123       O128   2.235       .  S
In123       O130   2.254       .  S
In123       O131   2.261       .  S
In123       O132   2.228       .  S
In123       O135   2.305       .  S
C124        O130   1.263       .  A
C124        O132   1.258       .  A
C124        C176   1.459       .  S
O125        C133   1.255       .  A
O126        C133   1.267       .  A
C127        O134   1.268       .  A
C127        O128   1.265       .  A
C127       C1375   1.479       .  S
C129        O131   1.258       .  A
C129        O135   1.257       .  A
C129        C142   1.482       .  S
In136       O138   2.270       .  S
In136       O139   2.312       .  S
In136       O147   2.250       .  S
In136       O141   2.236       .  S
In136       O143   2.225       .  S
In136       O144   2.310       .  S
In136       O145   2.253       .  S
In136       O148   2.235       .  S
C137        O143   1.258       .  A
C137        O145   1.261       .  A
C137        C189   1.458       .  S
O138        C146   1.259       .  A
O139        C146   1.263       .  A
C140        O147   1.268       .  A
C140        O141   1.260       .  A
C140       C1362   1.480       .  S
C142        O144   1.269       .  A
C142        O148   1.256       .  A
In149       O151   2.224       .  S
In149       O152   2.334       .  S
In149       O160   2.241       .  S
In149       O154   2.220       .  S
In149       O156   2.240       .  S
In149       O157   2.269       .  S
In149       O158   2.240       .  S
In149       O161   2.304       .  S
C150        O156   1.258       .  A
C150        O158   1.259       .  A
O151        C159   1.255       .  A
O152        C159   1.268       .  A
C153        O160   1.268       .  A
C153        O154   1.263       .  A
C153       C1352   1.484       .  S
C155        O157   1.260       .  A
C155        O161   1.257       .  A
C155        C168   1.486   1_565  S
C159        C181   1.487       .  S
In162       O164   2.242       .  S
In162       O165   2.317       .  S
In162       O173   2.254       .  S
In162       O167   2.214       .  S
In162       O169   2.222       .  S
In162       O170   2.307       .  S
In162       O171   2.249       .  S
In162       O174   2.239       .  S
C163        O169   1.259       .  A
C163        O171   1.261       .  A
O164        C172   1.258       .  A
O165        C172   1.267       .  A
C166        O173   1.267       .  A
C166        O167   1.260       .  A
C166       C1342   1.474       .  S
C168        O170   1.271       .  A
C168        O174   1.257       .  A
C172        C194   1.489       .  S
In175       O177   2.285       .  S
In175       O178   2.274       .  S
In175       O186   2.247       .  S
In175       O180   2.206       .  S
In175       O182   2.249       .  S
In175       O183   2.333       .  S
In175       O184   2.234       .  S
In175       O187   2.222       .  S
C176        O182   1.259       .  A
C176        O184   1.259       .  A
O177        C185   1.253       .  A
O178        C185   1.261       .  A
C179        O186   1.270       .  A
C179        O180   1.263       .  A
C179       C1332   1.478       .  S
C181        O183   1.268       .  A
C181        O187   1.255       .  A
C185        C198   1.479       .  S
In188       O190   2.235       .  S
In188       O191   2.288       .  S
In188       O199   2.233       .  S
In188       O193   2.224       .  S
In188       O195   2.223       .  S
In188       O196   2.316       .  S
In188       O197   2.248       .  S
In188       O200   2.241       .  S
C189        O195   1.260       .  A
C189        O197   1.262       .  A
O190        C198   1.257       .  A
O191        C198   1.272       .  A
C192        O199   1.266       .  A
C192        O193   1.261       .  A
C192       C1322   1.467       .  S
C194        O196   1.268       .  A
C194        O200   1.258       .  A
In201       O203   2.280       .  S
In201       O204   2.295       .  S
In201       O212   2.265       .  S
In201       O206   2.187       .  S
In201       O208   2.220       .  S
In201       O209   2.345       .  S
In201       O210   2.254       .  S
In201       O213   2.221       .  S
C202        O208   1.256       .  A
C202        O210   1.262       .  A
C202        C280   1.456       .  S
O203        C211   1.255       .  A
O204        C211   1.267       .  A
C205        O212   1.270       .  A
C205        O206   1.257       .  A
C205       C1315   1.474       .  S
C207        O209   1.270       .  A
C207        O213   1.253       .  A
C207        C237   1.491       .  S
C211        C224   1.489       .  S
In214       O216   2.264       .  S
In214       O217   2.303       .  S
In214       O225   2.243       .  S
In214       O219   2.221       .  S
In214       O221   2.213       .  S
In214       O222   2.325       .  S
In214       O223   2.249       .  S
In214       O226   2.233       .  S
C215        O221   1.257       .  A
C215        O223   1.260       .  A
C215        C293   1.452       .  S
O216        C224   1.255       .  A
O217        C224   1.269       .  A
C218        O225   1.269       .  A
C218        O219   1.260       .  A
C218       C1495   1.483       .  S
C220        O222   1.269       .  A
C220        O226   1.257       .  A
C220        C250   1.489   1_455  S
In227       O229   2.230       .  S
In227       O230   2.343       .  S
In227       O238   2.267       .  S
In227       O232   2.212       .  S
In227       O234   2.246       .  S
In227       O235   2.290       .  S
In227       O236   2.256       .  S
In227       O239   2.271       .  S
C228        O234   1.258       .  A
C228        O236   1.261       .  A
C228        C254   1.465       .  S
O229        C237   1.255       .  A
O230        C237   1.267       .  A
C231        O238   1.267       .  A
C231        O232   1.259       .  A
C231       C1302   1.485       .  S
C233        O235   1.267       .  A
C233        O239   1.257       .  A
C233        C246   1.487       .  S
In240       O242   2.232       .  S
In240       O243   2.322       .  S
In240       O251   2.248       .  S
In240       O245   2.229       .  S
In240       O247   2.232       .  S
In240       O248   2.294       .  S
In240       O249   2.245       .  S
In240       O252   2.269       .  S
C241        O247   1.259       .  A
C241        O249   1.260       .  A
C241        C267   1.457       .  S
O242        C250   1.258       .  A
O243        C250   1.269       .  A
C244        O251   1.267       .  A
C244        O245   1.260       .  A
C244       C1525   1.486       .  S
C246        O248   1.268       .  A
C246        O252   1.257       .  A
In253       O255   2.258       .  S
In253       O256   2.278       .  S
In253       O264   2.256       .  S
In253       O258   2.235       .  S
In253       O260   2.247       .  S
In253       O261   2.316       .  S
In253       O262   2.246       .  S
In253       O265   2.234       .  S
C254        O260   1.262       .  A
C254        O262   1.260       .  A
O255        C263   1.258       .  A
O256        C263   1.268       .  A
C257        O264   1.266       .  A
C257        O258   1.263       .  A
C257       C1295   1.484       .  S
C259        O261   1.269       .  A
C259        O265   1.258       .  A
C259        C289   1.488       .  S
C263        C276   1.479       .  S
In266       O268   2.256       .  S
In266       O269   2.284       .  S
In266       O277   2.258       .  S
In266       O271   2.224       .  S
In266       O273   2.235       .  S
In266       O274   2.326       .  S
In266       O275   2.248       .  S
In266       O278   2.251       .  S
C267        O273   1.257       .  A
C267        O275   1.258       .  A
O268        C276   1.256       .  A
O269        C276   1.268       .  A
C270        O277   1.268       .  A
C270        O271   1.259       .  A
C270       C1595   1.477       .  S
C272        O274   1.266       .  A
C272        O278   1.257       .  A
C272        C302   1.493   1_655  S
In279       O281   2.234       .  S
In279       O282   2.315       .  S
In279       O290   2.228       .  S
In279       O284   2.230       .  S
In279       O286   2.225       .  S
In279       O287   2.258       .  S
In279       O288   2.243       .  S
In279       O291   2.278       .  S
C280        O286   1.261       .  A
C280        O288   1.260       .  A
O281        C289   1.259       .  A
O282        C289   1.269       .  A
C283        O290   1.267       .  A
C283        O284   1.264       .  A
C283       C1282   1.478       .  S
C285        O287   1.255       .  A
C285        O291   1.269       .  A
C285        C298   1.479       .  S
In292       O294   2.242       .  S
In292       O295   2.325       .  S
In292       O303   2.244       .  S
In292       O297   2.203       .  S
In292       O299   2.210       .  S
In292       O300   2.242       .  S
In292       O301   2.249       .  S
In292       O304   2.288       .  S
C293        O299   1.257       .  A
C293        O301   1.261       .  A
O294        C302   1.257       .  A
O295        C302   1.269       .  A
C296        O303   1.267       .  A
C296        O297   1.259       .  A
C296       C1555   1.463       .  S
C298        O300   1.256       .  A
C298        O304   1.271       .  A
C305        C306   1.542       .  S
C305        C311   1.541       .  S
C305        C309   1.552       .  S
C305       C1292   1.555       .  S
C306        H313   1.085       .  S
C306        C307   1.376       .  D
C307        C308   1.547       .  S
C307       C1262   1.524       .  S
C308        C312   1.553       .  S
C308        C310   1.538       .  S
C308        H314   1.093       .  S
C309        H315   1.081       .  S
C309        C310   1.368       .  D
C310       C1252   1.501       .  S
C311        H316   1.086       .  S
C311        C312   1.359       .  D
C312       C1275   1.498       .  S
C317        C318   1.545       .  S
C317        C323   1.546       .  S
C317        C321   1.538       .  S
C317       C1285   1.559       .  S
C318        H325   1.081       .  S
C318        C319   1.366       .  D
C319        C320   1.551       .  S
C319       C1232   1.500       .  S
C320        C324   1.548       .  S
C320        C322   1.549       .  S
C320        H326   1.109       .  S
C321        H327   1.086       .  S
C321        C322   1.370       .  D
C322       C1245   1.509       .  S
C323        H328   1.084       .  S
C323        C324   1.366       .  D
C324       C1272   1.511       .  S
C329        C330   1.537   1_565  S
C329        C335   1.563       .  S
C329        C333   1.542   1_565  S
C329       C1305   1.553   1_565  S
C330        H337   1.087       .  S
C330        C331   1.353   1_545  D
C331        C332   1.550       .  S
C331       C1222   1.486       .  S
C332        C336   1.538       .  S
C332        C334   1.536       .  S
C332        H338   1.097       .  S
C333        H339   1.084       .  S
C333        C334   1.365   1_545  D
C334       C1212   1.498       .  S
C335        H340   1.080       .  S
C335        C336   1.382       .  D
C336       C1265   1.526       .  S
C341        C342   1.536   1_545  S
C341        C347   1.553       .  S
C341        C345   1.521       .  S
C341       C1312   1.539       .  S
C342        H349   1.079       .  S
C342        C343   1.366       .  D
C343        C344   1.551       .  S
C343       C1242   1.511       .  S
C344        C348   1.543       .  S
C344        C346   1.563   1_565  S
C344        H350   1.104       .  S
C345        H351   1.087       .  S
C345        C346   1.360       .  D
C346       C1202   1.487       .  S
C347        H352   1.085       .  S
C347        C348   1.365   1_545  D
C348       C1225   1.504       .  S
C353        C354   1.557       .  S
C353        C359   1.517       .  S
C353        C357   1.556       .  S
C353       C1365   1.555       .  S
C354        H361   1.082       .  S
C354        C355   1.385       .  D
C355        C356   1.551       .  S
C355       C1192   1.536       .  S
C356        C360   1.547       .  S
C356        C358   1.532       .  S
C356        H362   1.090       .  S
C357        H363   1.082       .  S
C357        C358   1.371       .  D
C358       C1235   1.506       .  S
C359        H364   1.088       .  S
C359        C360   1.344       .  D
C360       C1182   1.477       .  S
C365        C366   1.527   1_565  S
C365        C371   1.551       .  S
C365        C369   1.548   1_565  S
C365       C1385   1.552   1_565  S
C366        H373   1.087       .  S
C366        C367   1.358   1_545  D
C367        C368   1.554       .  S
C367       C1172   1.498       .  S
C368        C372   1.556       .  S
C368        C370   1.541       .  S
C368        H374   1.107       .  S
C369        H375   1.084       .  S
C369        C370   1.366   1_545  D
C370       C1205   1.492       .  S
C371        H376   1.080       .  S
C371        C372   1.373       .  D
C372       C1195   1.526       .  S
C377        C378   1.519       .  S
C377        C383   1.551       .  S
C377        C381   1.549       .  S
C377       C1325   1.541       .  S
C378        H385   1.087       .  S
C378        C379   1.348       .  D
C379        C380   1.548       .  S
C379       C1185   1.476       .  S
C380        C384   1.545       .  S
C380        C382   1.534       .  S
C380        H386   1.094       .  S
C381        H387   1.084       .  S
C381        C382   1.368       .  D
C382       C1255   1.501       .  S
C383        H388   1.082       .  S
C383        C384   1.377       .  D
C384       C1162   1.516       .  S
C389        C390   1.558       .  S
C389        C395   1.535       .  S
C389        C393   1.538       .  S
C389       C1345   1.544   1_565  S
C390        H397   1.082       .  S
C390        C391   1.373       .  D
C391        C392   1.535       .  S
C391       C1165   1.511       .  S
C392        C396   1.550       .  S
C392        C394   1.535       .  S
C392        H398   1.092       .  S
C393        H399   1.085   1_565  S
C393        C394   1.371       .  D
C394       C1215   1.505       .  S
C395        H400   1.086   1_565  S
C395        C396   1.354       .  D
C396       C1175   1.483       .  S
In401       O403   2.231       .  S
In401       O404   2.328       .  S
In401       O412   2.242       .  S
In401       O406   2.225       .  S
In401       O408   2.237       .  S
In401       O409   2.250       .  S
In401       O410   2.240       .  S
In401       O413   2.302       .  S
C402        O408   1.259       .  A
C402        O410   1.260       .  A
C402        C467   1.457   1_655  S
O403        C411   1.255       .  A
O404        C411   1.265       .  A
C405        O412   1.267       .  A
C405        O406   1.261       .  A
C405       C1425   1.478       .  S
C407        O409   1.258       .  A
C407        O413   1.259       .  A
C407        C420   1.481   1_556  S
C411        C446   1.486       .  S
In414       O416   2.249       .  S
In414       O417   2.326       .  S
In414       O425   2.249       .  S
In414       O419   2.221       .  S
In414       O421   2.219       .  S
In414       O422   2.305       .  S
In414       O423   2.237       .  S
In414       O426   2.230   1_565  S
C415        O421   1.260       .  A
C415        O423   1.263       .  A
C415        C454   1.453   1_655  S
O416        C424   1.258       .  A
O417        C424   1.268       .  A
C418        O425   1.266       .  A
C418        O419   1.260       .  A
C418       C1152   1.479       .  S
C420        O422   1.271   1_545  A
C420        O426   1.256       .  A
C424        C433   1.495       .  S
In427       O429   2.242       .  S
In427       O430   2.309   1_554  S
In427       O438   2.243       .  S
In427       O432   2.214       .  S
In427       O434   2.214       .  S
In427       O435   2.327       .  S
In427       O436   2.256       .  S
In427       O439   2.249       .  S
C428        O434   1.258       .  A
C428        O436   1.262       .  A
C428        C480   1.456   1_655  S
O429        C437   1.256       .  A
O430        C437   1.271   1_556  A
C431        O438   1.267       .  A
C431        O432   1.260       .  A
C431       C1145   1.473       .  S
C433        O435   1.268       .  A
C433        O439   1.257       .  A
C437        C450   1.486   1_554  S
In440       O442   2.301       .  S
In440       O443   2.267       .  S
In440       O451   2.253       .  S
In440       O445   2.197       .  S
In440       O447   2.238       .  S
In440       O448   2.335       .  S
In440       O449   2.246       .  S
In440       O452   2.227       .  S
C441        O447   1.258       .  A
C441        O449   1.260       .  A
C441        C493   1.458   1_655  S
O442        C450   1.257       .  A
O443        C450   1.260       .  A
C444        O451   1.270       .  A
C444        O445   1.263       .  A
C444       C1475   1.473       .  S
C446        O448   1.267       .  A
C446        O452   1.252       .  A
In453       O455   2.310       .  S
In453       O456   2.259   1_554  S
In453       O464   2.248       .  S
In453       O458   2.236       .  S
In453       O460   2.228       .  S
In453       O461   2.333       .  S
In453       O462   2.239       .  S
In453       O465   2.238       .  S
C454        O460   1.259       .  A
C454        O462   1.259       .  A
O455        C463   1.258   1_564  A
O456        C463   1.258   1_565  A
C457        O464   1.269       .  A
C457        O458   1.262       .  A
C457       C1135   1.487   1_565  S
C459        O461   1.266       .  A
C459        O465   1.255       .  A
C459        C489   1.490       .  S
C463        C476   1.485       .  S
In466       O468   2.233       .  S
In466       O469   2.311       .  S
In466       O477   2.244       .  S
In466       O471   2.229       .  S
In466       O473   2.227       .  S
In466       O474   2.311       .  S
In466       O475   2.233       .  S
In466       O478   2.232       .  S
C467        O473   1.263       .  A
C467        O475   1.263       .  A
O468        C476   1.256       .  A
O469        C476   1.271       .  A
C470        O477   1.265       .  A
C470        O471   1.260       .  A
C470       C1405   1.486       .  S
C472        O474   1.270       .  A
C472        O478   1.260       .  A
C472        C502   1.487       .  S
In479       O481   2.228       .  S
In479       O482   2.328   1_554  S
In479       O490   2.241       .  S
In479       O484   2.201       .  S
In479       O486   2.213       .  S
In479       O487   2.288   1_554  S
In479       O488   2.253   1_554  S
In479       O491   2.252       .  S
C480        O486   1.258       .  A
C480        O488   1.262   1_554  A
O481        C489   1.257       .  A
O482        C489   1.270   1_556  A
C483        O490   1.268       .  A
C483        O484   1.260       .  A
C483       C1125   1.465       .  S
C485        O487   1.271       .  A
C485        O491   1.256   1_556  A
C485        C498   1.483       .  S
In492       O494   2.231       .  S
In492       O495   2.312       .  S
In492       O503   2.238       .  S
In492       O497   2.220       .  S
In492       O499   2.238       .  S
In492       O500   2.287       .  S
In492       O501   2.242       .  S
In492       O504   2.261       .  S
C493        O499   1.260       .  A
C493        O501   1.259       .  A
O494        C502   1.260       .  A
O495        C502   1.270       .  A
C496        O503   1.266       .  A
C496        O497   1.263       .  A
C496       C1442   1.491       .  S
C498        O500   1.269       .  A
C498        O504   1.255       .  A
C505        C506   1.539       .  S
C505        C511   1.541       .  S
C505        C509   1.546       .  S
C505       C1355   1.559       .  S
C506        H513   1.086       .  S
C506        C507   1.373       .  D
C507        C508   1.552       .  S
C507       C1112   1.516       .  S
C508        C512   1.547       .  S
C508        C510   1.538       .  S
C508        H514   1.104       .  S
C509        H515   1.083       .  S
C509        C510   1.362       .  D
C510       C1092   1.482       .  S
C511        H516   1.080       .  S
C511        C512   1.367       .  D
C512       C1102   1.514       .  S
C517        C518   1.538       .  S
C517        C523   1.542       .  S
C517        C521   1.550       .  S
C517       C1335   1.558       .  S
C518        H525   1.083       .  S
C518        C519   1.364       .  D
C519        C520   1.549       .  S
C519       C1082   1.506       .  S
C520        C524   1.551       .  S
C520        C522   1.540       .  S
C520        H526   1.107       .  S
C521        H527   1.082       .  S
C521        C522   1.365       .  D
C522       C1072   1.498       .  S
C523        H528   1.086       .  S
C523        C524   1.372       .  D
C524       C1115   1.511       .  S
C529        C530   1.543       .  S
C529        C535   1.534       .  S
C529        C533   1.550       .  S
C529       C1395   1.553       .  S
C530        H537   1.080       .  S
C530        C531   1.371       .  D
C531        C532   1.554       .  S
C531       C1105   1.515       .  S
C532        C536   1.556       .  S
C532        C534   1.537       .  S
C532        H538   1.106       .  S
C533        H539   1.083       .  S
C533        C534   1.361       .  D
C534       C1052   1.490       .  S
C535        H540   1.086       .  S
C535        C536   1.364       .  D
C536       C1065   1.509       .  S
C541        C542   1.546       .  S
C541        C547   1.540       .  S
C541        C545   1.556       .  S
C541       C1372   1.564       .  S
C542        H549   1.081       .  S
C542        C543   1.363       .  D
C543        C544   1.547       .  S
C543       C1062   1.498       .  S
C544        C548   1.546       .  S
C544        C546   1.539       .  S
C544        H550   1.107       .  S
C545        H551   1.084       .  S
C545        C546   1.373       .  D
C546       C1042   1.510       .  S
C547        H552   1.085       .  S
C547        C548   1.368       .  D
C548       C1085   1.513       .  S
C553        C554   1.545       .  S
C553        C559   1.554       .  S
C553        C557   1.516       .  S
C553       C1032   1.536       .  S
C554        H561   1.084       .  S
C554        C555   1.365       .  D
C555        C556   1.539       .  S
C555       C1022   1.509       .  S
C556        C560   1.538       .  S
C556        C558   1.561       .  S
C556        H562   1.094       .  S
C557        H563   1.087       .  S
C557        C558   1.352       .  D
C558       C1055   1.479       .  S
C559        H564   1.080       .  S
C559        C560   1.375       .  D
C560       C1012   1.519       .  S
C565        C566   1.540       .  S
C565        C571   1.547       .  S
C565        C569   1.542       .  S
C565       C1005   1.549       .  S
C566        H573   1.086       .  S
C566        C567   1.374       .  D
C567        C568   1.548       .  S
C567       C1015   1.517       .  S
C568        C572   1.534       .  S
C568        C570   1.546       .  S
C568        H574   1.103       .  S
C569        H575   1.084       .  S
C569        C570   1.356       .  D
C570       C1095   1.485       .  S
C571        H576   1.083       .  S
C571        C572   1.367       .  D
C572        C992   1.497       .  S
C577        C578   1.537       .  S
C577        C583   1.537       .  S
C577        C581   1.559       .  S
C577        C982   1.557       .  S
C578        H585   1.085       .  S
C578        C579   1.372       .  D
C579        C580   1.540       .  S
C579        C995   1.513       .  S
C580        C584   1.549       .  S
C580        C582   1.533       .  S
C580        H586   1.094       .  S
C581        H587   1.078       .  S
C581        C582   1.372       .  D
C582       C1075   1.505       .  S
C583        H588   1.086       .  S
C583        C584   1.358       .  D
C584        C972   1.487       .  S
C589        C590   1.533       .  S
C589        C595   1.547       .  S
C589        C593   1.538       .  S
C589        C962   1.546       .  S
C590        H597   1.086       .  S
C590        C591   1.369       .  D
C591        C592   1.559       .  S
C591       C1045   1.511       .  S
C592        C596   1.550       .  S
C592        C594   1.547       .  S
C592        H598   1.109       .  S
C593        H599   1.082       .  S
C593        C594   1.360       .  D
C594       C1025   1.499       .  S
C595        H600   1.086       .  S
C595        C596   1.368       .  D
C596        C975   1.505       .  S
In601       O603   2.253       .  S
In601       O604   2.273       .  S
In601       O612   2.226   1_565  S
In601       O606   2.214       .  S
In601       O608   2.218       .  S
In601       O609   2.307       .  S
In601       O610   2.239       .  S
In601       O613   2.221       .  S
C602        O608   1.262       .  A
C602        O610   1.261       .  A
C602        C667   1.455       .  S
O603        C611   1.258       .  A
O604        C611   1.271       .  A
C605        O612   1.267   1_565  A
C605        O606   1.263       .  A
C605        C952   1.468   1_565  S
C607        O609   1.271       .  A
C607        O613   1.259       .  A
C607        C650   1.483   1_455  S
C611        C624   1.480       .  S
In614       O616   2.254       .  S
In614       O617   2.296       .  S
In614       O625   2.243       .  S
In614       O619   2.193       .  S
In614       O621   2.211       .  S
In614       O622   2.323       .  S
In614       O623   2.266       .  S
In614       O626   2.219       .  S
C615        O621   1.255       .  A
C615        O623   1.261       .  A
C615        C654   1.455       .  S
O616        C624   1.252       .  A
O617        C624   1.268       .  A
C618        O625   1.270       .  A
C618        O619   1.261       .  A
C618       C1035   1.471       .  S
C620        O622   1.270       .  A
C620        O626   1.255       .  A
C620        C637   1.484       .  S
In627       O629   2.226       .  S
In627       O630   2.316       .  S
In627       O638   2.258       .  S
In627       O632   2.210       .  S
In627       O634   2.240       .  S
In627       O635   2.273       .  S
In627       O636   2.252       .  S
In627       O639   2.251       .  S
C628        O634   1.258       .  A
C628        O636   1.259       .  A
C628        C680   1.461       .  S
O629        C637   1.258       .  A
O630        C637   1.267       .  A
C631        O638   1.268       .  A
C631        O632   1.260       .  A
C631       C1002   1.488   1_565  S
C633        O635   1.266       .  A
C633        O639   1.254       .  A
C633        C646   1.471       .  S
In640       O642   2.228       .  S
In640       O643   2.309       .  S
In640       O651   2.240   1_565  S
In640       O645   2.222       .  S
In640       O647   2.234       .  S
In640       O648   2.270       .  S
In640       O649   2.234       .  S
In640       O652   2.240       .  S
C641        O647   1.260       .  A
C641        O649   1.260       .  A
C641        C693   1.456       .  S
O642        C650   1.258       .  A
O643        C650   1.267       .  A
C644        O651   1.266   1_565  A
C644        O645   1.261       .  A
C644        C942   1.472   1_565  S
C646        O648   1.269       .  A
C646        O652   1.257       .  A
In653       O655   2.229       .  S
In653       O656   2.327       .  S
In653       O664   2.262       .  S
In653       O658   2.199       .  S
In653       O660   2.209       .  S
In653       O661   2.300       .  S
In653       O662   2.263       .  S
In653       O665   2.247       .  S
C654        O660   1.256       .  A
C654        O662   1.261       .  A
O655        C663   1.256       .  A
O656        C663   1.270       .  A
C657        O664   1.269       .  A
C657        O658   1.259       .  A
C657        C965   1.478       .  S
C659        O661   1.271       .  A
C659        O665   1.256       .  A
C659        C672   1.485       .  S
C663        C685   1.489       .  S
In666       O668   2.218       .  S
In666       O669   2.330       .  S
In666       O677   2.250       .  S
In666       O671   2.194       .  S
In666       O673   2.226       .  S
In666       O674   2.283       .  S
In666       O675   2.256       .  S
In666       O678   2.285       .  S
C667        O673   1.255       .  A
C667        O675   1.259       .  A
O668        C676   1.253       .  A
O669        C676   1.268       .  A
C670        O677   1.270       .  A
C670        O671   1.259       .  A
C670        C932   1.474       .  S
C672        O674   1.264       .  A
C672        O678   1.255       .  A
C676        C698   1.484   1_455  S
In679       O681   2.252       .  S
In679       O682   2.276       .  S
In679       O690   2.251       .  S
In679       O684   2.221       .  S
In679       O686   2.236       .  S
In679       O687   2.321       .  S
In679       O688   2.250       .  S
In679       O691   2.235       .  S
C680        O686   1.259       .  A
C680        O688   1.261       .  A
O681        C689   1.257       .  A
O682        C689   1.269       .  A
C683        O690   1.266       .  A
C683        O684   1.260       .  A
C683        C985   1.479       .  S
C685        O687   1.267       .  A
C685        O691   1.258       .  A
C689        C702   1.477       .  S
In692       O694   2.264       .  S
In692       O695   2.286       .  S
In692       O703   2.248       .  S
In692       O697   2.199       .  S
In692       O699   2.240       .  S
In692       O700   2.324       .  S
In692       O701   2.241       .  S
In692       O704   2.218       .  S
C693        O699   1.258       .  A
C693        O701   1.259       .  A
O694        C702   1.252       .  A
O695        C702   1.265       .  A
C696        O703   1.270       .  A
C696        O697   1.262       .  A
C696        C922   1.479       .  S
C698        O700   1.268       .  A
C698        O704   1.256       .  A
C705        C706   1.531       .  S
C705        C711   1.535       .  S
C705        C709   1.553       .  S
C705        C935   1.540       .  S
C706        H713   1.086       .  S
C706        C707   1.362       .  D
C707        C708   1.548       .  S
C707        C892   1.492       .  S
C708        C712   1.550       .  S
C708        C710   1.551       .  S
C708        H714   1.108       .  S
C709        H715   1.084       .  S
C709        C710   1.380       .  D
C710        C902   1.521       .  S
C711        H716   1.085       .  S
C711        C712   1.355       .  D
C712        C912   1.494       .  S
C717        C718   1.533       .  S
C717        C723   1.530       .  S
C717        C721   1.557       .  S
C717        C955   1.546       .  S
C718        H725   1.086       .  S
C718        C719   1.369       .  D
C719        C720   1.549       .  S
C719        C905   1.521       .  S
C720        C724   1.561       .  S
C720        C722   1.542       .  S
C720        H726   1.100       .  S
C721        H727   1.081       .  S
C721        C722   1.373       .  D
C722        C872   1.509       .  S
C723        H728   1.087       .  S
C723        C724   1.353       .  D
C724        C882   1.488       .  S
C729        C730   1.550       .  S
C729        C735   1.546       .  S
C729        C733   1.535       .  S
C729        C945   1.553       .  S
C730        H737   1.083       .  S
C730        C731   1.375       .  D
C731        C732   1.551       .  S
C731        C852   1.506       .  S
C732        C736   1.540       .  S
C732        C734   1.542       .  S
C732        H738   1.109       .  S
C733        H739   1.085       .  S
C733        C734   1.363       .  D
C734        C862   1.500       .  S
C735        H740   1.085       .  S
C735        C736   1.360       .  D
C736        C885   1.497       .  S
C741        C742   1.548       .  S
C741        C747   1.539       .  S
C741        C745   1.540       .  S
C741        C925   1.547       .  S
C742        H749   1.084       .  S
C742        C743   1.378       .  D
C743        C744   1.540       .  S
C743        C865   1.513       .  S
C744        C748   1.536       .  S
C744        C746   1.547       .  S
C744        H750   1.095       .  S
C745        H751   1.086       .  S
C745        C746   1.357       .  D
C746        C842   1.486       .  S
C747        H752   1.086       .  S
C747        C748   1.366       .  D
C748        C915   1.497       .  S
C753        C754   1.539       .  S
C753        C759   1.537       .  S
C753        C757   1.550       .  S
C753       C1155   1.549       .  S
C754        H761   1.085       .  S
C754        C755   1.369       .  D
C755        C756   1.546       .  S
C755        C855   1.503       .  S
C756        C760   1.549       .  S
C756        C758   1.556       .  S
C756        H762   1.107       .  S
C757        H763   1.085       .  S
C757        C758   1.377       .  D
C758        C825   1.522       .  S
C759        H764   1.085       .  S
C759        C760   1.354       .  D
C760        C835   1.488       .  S
C765        C766   1.541       .  S
C765        C771   1.545       .  S
C765        C769   1.532       .  S
C765       C1142   1.546       .  S
C766        H773   1.081       .  S
C766        C767   1.365       .  D
C767        C768   1.548       .  S
C767        C812   1.504       .  S
C768        C772   1.544       .  S
C768        C770   1.554       .  S
C768        H774   1.109       .  S
C769        H775   1.086       .  S
C769        C770   1.370       .  D
C770        C845   1.503       .  S
C771        H776   1.084       .  S
C771        C772   1.360       .  D
C772        C832   1.489       .  S
C777        C778   1.536       .  S
C777        C783   1.536       .  S
C777        C781   1.555       .  S
C777       C1132   1.549       .  S
C778        H785   1.085       .  S
C778        C779   1.354       .  D
C779        C780   1.550       .  S
C779        C822   1.496       .  S
C780        C784   1.554       .  S
C780        C782   1.536       .  S
C780        H786   1.089       .  S
C781        H787   1.082       .  S
C781        C782   1.370       .  D
C782        C875   1.501       .  S
C783        H788   1.083       .  S
C783        C784   1.374       .  D
C784        C805   1.526       .  S
C789        C790   1.551       .  S
C789        C795   1.548       .  S
C789        C793   1.530       .  S
C789       C1122   1.549       .  S
C790        H797   1.084       .  S
C790        C791   1.366       .  D
C791        C792   1.542       .  S
C791        C895   1.496       .  S
C792        C796   1.545       .  S
C792        C794   1.549       .  S
C792        H798   1.108       .  S
C793        H799   1.086       .  S
C793        C794   1.364       .  D
C794        C815   1.505       .  S
C795        H800   1.081       .  S
C795        C796   1.367       .  D
C796        C802   1.508       .  S
C801        C802   1.409       .  A
C801        C806   1.400       .  A
C801       Br808   1.929       .  S
C802        C803   1.424       .  A
C803        C804   1.419       .  A
C803       Br810   1.939       .  S
C804        C805   1.424       .  A
C804       Br809   1.939       .  S
C805        C806   1.417       .  A
C806       Br807   1.930       .  S
C811        C812   1.421       .  A
C811        C816   1.406       .  A
C811       Br818   1.941       .  S
C812        C813   1.417       .  A
C813        C814   1.413       .  A
C813       Br820   1.924       .  S
C814        C815   1.410       .  A
C814       Br819   1.918       .  S
C815        C816   1.414       .  A
C816       Br817   1.928       .  S
C821        C822   1.408       .  A
C821        C826   1.414       .  A
C821       Br828   1.939   1_545  S
C822        C823   1.398       .  A
C823        C824   1.403       .  A
C823       Br830   1.920       .  S
C824        C825   1.421       .  A
C824       Br829   1.920       .  S
C825        C826   1.428       .  A
C826       Br827   1.920   1_545  S
C831        C832   1.408       .  A
C831        C836   1.409       .  A
C831       Br838   1.934       .  S
C832        C833   1.409       .  A
C833        C834   1.406       .  A
C833       Br840   1.909       .  S
C834        C835   1.406       .  A
C834       Br839   1.935       .  S
C835        C836   1.412       .  A
C836       Br837   1.914       .  S
C841        C842   1.399       .  A
C841        C846   1.404       .  A
C841       Br848   1.928       .  S
C842        C843   1.404       .  A
C843        C844   1.409       .  A
C843       Br850   1.928       .  S
C844        C845   1.422       .  A
C844       Br849   1.927       .  S
C845        C846   1.416       .  A
C846       Br847   1.913       .  S
C851        C852   1.412       .  A
C851        C856   1.408       .  A
C851       Br858   1.920       .  S
C852        C853   1.417       .  A
C853        C854   1.412       .  A
C853       Br860   1.926       .  S
C854        C855   1.414       .  A
C854       Br859   1.930       .  S
C855        C856   1.412       .  A
C856       Br857   1.920       .  S
C861        C862   1.414       .  A
C861        C866   1.409       .  A
C861       Br868   1.930       .  S
C862        C863   1.419       .  A
C863        C864   1.401       .  A
C863       Br870   1.931       .  S
C864        C865   1.405       .  A
C864       Br869   1.923       .  S
C865        C866   1.418       .  A
C866       Br867   1.930       .  S
C871        C872   1.418       .  A
C871        C876   1.416       .  A
C871       Br878   1.920       .  S
C872        C873   1.412       .  A
C873        C874   1.408       .  A
C873       Br880   1.918       .  S
C874        C875   1.408       .  A
C874       Br879   1.917       .  S
C875        C876   1.411       .  A
C876       Br877   1.929       .  S
C881        C882   1.402       .  A
C881        C886   1.401       .  A
C881       Br888   1.934       .  S
C882        C883   1.415       .  A
C883        C884   1.415       .  A
C883       Br890   1.932   1_545  S
C884        C885   1.417       .  A
C884       Br889   1.932   1_545  S
C885        C886   1.410       .  A
C886       Br887   1.906       .  S
C891        C892   1.413       .  A
C891        C896   1.413       .  A
C891       Br898   1.932       .  S
C892        C893   1.407       .  A
C893        C894   1.402       .  A
C893       Br900   1.916       .  S
C894        C895   1.406       .  A
C894       Br899   1.915       .  S
C895        C896   1.415       .  A
C896       Br897   1.923       .  S
C901        C902   1.420       .  A
C901        C906   1.410       .  A
C901       Br908   1.928       .  S
C902        C903   1.423       .  A
C903        C904   1.418       .  A
C903       Br910   1.929       .  S
C904        C905   1.421       .  A
C904       Br909   1.935       .  S
C905        C906   1.419       .  A
C906       Br907   1.940       .  S
C911        C912   1.417       .  A
C911        C916   1.411       .  A
C911       Br918   1.937       .  S
C912        C913   1.403       .  A
C913        C914   1.405       .  A
C913       Br920   1.912       .  S
C914        C915   1.410       .  A
C914       Br919   1.918       .  S
C915        C916   1.415       .  A
C916       Br917   1.926       .  S
C921        C922   1.409       .  A
C921        C926   1.407       .  A
C921       Br928   1.938       .  S
C922        C923   1.410       .  A
C923        C924   1.407       .  A
C923       Br930   1.936       .  S
C924        C925   1.421       .  A
C924       Br929   1.931       .  S
C925        C926   1.420       .  A
C926       Br927   1.923       .  S
C931        C932   1.413       .  A
C931        C936   1.402       .  A
C931       Br938   1.934       .  S
C932        C933   1.408       .  A
C933        C934   1.409       .  A
C933       Br940   1.930       .  S
C934        C935   1.412       .  A
C934       Br939   1.916       .  S
C935        C936   1.415       .  A
C936       Br937   1.936       .  S
C941        C942   1.400       .  A
C941        C946   1.410       .  A
C941       Br948   1.935   1_545  S
C942        C943   1.402       .  A
C943        C944   1.407       .  A
C943       Br950   1.938       .  S
C944        C945   1.434       .  A
C944       Br949   1.939       .  S
C945        C946   1.428       .  A
C946       Br947   1.923       .  S
C951        C952   1.404       .  A
C951        C956   1.411       .  A
C951       Br958   1.932   1_545  S
C952        C953   1.402       .  A
C953        C954   1.403       .  A
C953       Br960   1.938       .  S
C954        C955   1.429       .  A
C954       Br959   1.935       .  S
C955        C956   1.423       .  A
C956       Br957   1.927       .  S
C961        C962   1.424       .  A
C961        C966   1.412       .  A
C961       Br968   1.935       .  S
C962        C963   1.414       .  A
C963        C964   1.403       .  A
C963       Br970   1.922       .  S
C964        C965   1.411       .  A
C964       Br969   1.936       .  S
C965        C966   1.407       .  A
C966       Br967   1.931       .  S
C971        C972   1.404       .  A
C971        C976   1.410   1_655  A
C971       Br978   1.933       .  S
C972        C973   1.401       .  A
C973        C974   1.406   1_655  A
C973       Br980   1.930       .  S
C974        C975   1.416       .  A
C974       Br979   1.915       .  S
C975        C976   1.421       .  A
C976       Br977   1.920       .  S
C981        C982   1.433       .  A
C981        C986   1.410       .  A
C981       Br988   1.941       .  S
C982        C983   1.428       .  A
C983        C984   1.412       .  A
C983       Br990   1.927       .  S
C984        C985   1.405       .  A
C984       Br989   1.937       .  S
C985        C986   1.404       .  A
C986       Br987   1.937       .  S
C991        C992   1.413       .  A
C991        C996   1.407       .  A
C991       Br998   1.932       .  S
C992        C993   1.414       .  A
C993        C994   1.406       .  A
C993      Br1000   1.925       .  S
C994        C995   1.419       .  A
C994       Br999   1.935       .  S
C995        C996   1.417       .  A
C996       Br997   1.932       .  S
C1001      C1002   1.412   1_565  A
C1001      C1006   1.405       .  A
C1001     Br1008   1.936       .  S
C1002      C1003   1.413       .  A
C1003      C1004   1.414       .  A
C1003     Br1010   1.938       .  S
C1004      C1005   1.426       .  A
C1004     Br1009   1.934       .  S
C1005      C1006   1.421   1_545  A
C1006     Br1007   1.938       .  S
C1011      C1012   1.421       .  A
C1011      C1016   1.411   1_455  A
C1011     Br1018   1.939       .  S
C1012      C1013   1.427       .  A
C1013      C1014   1.415   1_455  A
C1013     Br1020   1.936       .  S
C1014      C1015   1.420       .  A
C1014     Br1019   1.932       .  S
C1015      C1016   1.419       .  A
C1016     Br1017   1.935       .  S
C1021      C1022   1.421       .  A
C1021      C1026   1.412       .  A
C1021     Br1028   1.932       .  S
C1022      C1023   1.417       .  A
C1023      C1024   1.408       .  A
C1023     Br1030   1.922       .  S
C1024      C1025   1.407       .  A
C1024     Br1029   1.923       .  S
C1025      C1026   1.417       .  A
C1026     Br1027   1.942       .  S
C1031      C1032   1.417   1_565  A
C1031      C1036   1.402       .  A
C1031     Br1038   1.936       .  S
C1032      C1033   1.425       .  A
C1033      C1034   1.407       .  A
C1033     Br1040   1.937       .  S
C1034      C1035   1.404   1_545  A
C1034     Br1039   1.932       .  S
C1035      C1036   1.411       .  A
C1036     Br1037   1.936       .  S
C1041      C1042   1.414       .  A
C1041      C1046   1.419       .  A
C1041     Br1048   1.933       .  S
C1042      C1043   1.414       .  A
C1043      C1044   1.410       .  A
C1043     Br1050   1.919       .  S
C1044      C1045   1.411       .  A
C1044     Br1049   1.926       .  S
C1045      C1046   1.424       .  A
C1046     Br1047   1.934       .  S
C1051      C1052   1.411       .  A
C1051      C1056   1.403       .  A
C1051     Br1058   1.910   1_545  S
C1052      C1053   1.411       .  A
C1053      C1054   1.410       .  A
C1053     Br1060   1.926       .  S
C1054      C1055   1.409       .  A
C1054     Br1059   1.928       .  S
C1055      C1056   1.402       .  A
C1056     Br1057   1.935   1_545  S
C1061      C1062   1.414       .  A
C1061      C1066   1.411       .  A
C1061     Br1068   1.933       .  S
C1062      C1063   1.405       .  A
C1063      C1064   1.412       .  A
C1063     Br1070   1.918       .  S
C1064      C1065   1.410       .  A
C1064     Br1069   1.904       .  S
C1065      C1066   1.416       .  A
C1066     Br1067   1.923       .  S
C1071      C1072   1.408       .  A
C1071      C1076   1.408       .  A
C1071     Br1078   1.920       .  S
C1072      C1073   1.412       .  A
C1073      C1074   1.414       .  A
C1073     Br1080   1.932       .  S
C1074      C1075   1.417       .  A
C1074     Br1079   1.922       .  S
C1075      C1076   1.412       .  A
C1076     Br1077   1.919       .  S
C1081      C1082   1.412       .  A
C1081      C1086   1.406   1_655  A
C1081     Br1088   1.923       .  S
C1082      C1083   1.421       .  A
C1083      C1084   1.413   1_655  A
C1083     Br1090   1.945       .  S
C1084      C1085   1.423       .  A
C1084     Br1089   1.932       .  S
C1085      C1086   1.415       .  A
C1086     Br1087   1.916       .  S
C1091      C1092   1.406       .  A
C1091      C1096   1.405       .  A
C1091     Br1098   1.918   1_545  S
C1092      C1093   1.409       .  A
C1093      C1094   1.409       .  A
C1093     Br1100   1.931       .  S
C1094      C1095   1.407       .  A
C1094     Br1099   1.917       .  S
C1095      C1096   1.407       .  A
C1096     Br1097   1.932   1_545  S
C1101      C1102   1.421       .  A
C1101      C1106   1.414   1_655  A
C1101     Br1108   1.942   1_545  S
C1102      C1103   1.417       .  A
C1103      C1104   1.411   1_655  A
C1103     Br1110   1.926       .  S
C1104      C1105   1.417       .  A
C1104     Br1109   1.925       .  S
C1105      C1106   1.426       .  A
C1106     Br1107   1.944   1_545  S
C1111      C1112   1.419       .  A
C1111      C1116   1.419       .  A
C1111     Br1118   1.922       .  S
C1112      C1113   1.415       .  A
C1113      C1114   1.409       .  A
C1113     Br1120   1.927       .  S
C1114      C1115   1.415       .  A
C1114     Br1119   1.924       .  S
C1115      C1116   1.415       .  A
C1116     Br1117   1.924       .  S
C1121      C1122   1.427       .  A
C1121      C1126   1.406       .  A
C1121     Br1128   1.927       .  S
C1122      C1123   1.432       .  A
C1123      C1124   1.407       .  A
C1123     Br1130   1.933       .  S
C1124      C1125   1.400       .  A
C1124     Br1129   1.937       .  S
C1125      C1126   1.400       .  A
C1126     Br1127   1.935       .  S
C1131      C1132   1.422       .  A
C1131      C1136   1.416       .  A
C1131     Br1138   1.932       .  S
C1132      C1133   1.424       .  A
C1133      C1134   1.406       .  A
C1133     Br1140   1.942       .  S
C1134      C1135   1.408       .  A
C1134     Br1139   1.935       .  S
C1135      C1136   1.415       .  A
C1136     Br1137   1.934   1_545  S
C1141      C1142   1.424       .  A
C1141      C1146   1.408       .  A
C1141     Br1148   1.930       .  S
C1142      C1143   1.418       .  A
C1143      C1144   1.406       .  A
C1143     Br1150   1.932       .  S
C1144      C1145   1.410       .  A
C1144     Br1149   1.934       .  S
C1145      C1146   1.403       .  A
C1146     Br1147   1.933       .  S
C1151      C1152   1.405       .  A
C1151      C1156   1.407       .  A
C1151     Br1158   1.932       .  S
C1152      C1153   1.413   1_565  A
C1153      C1154   1.410       .  A
C1153     Br1160   1.934       .  S
C1154      C1155   1.422       .  A
C1154     Br1159   1.937       .  S
C1155      C1156   1.415   1_545  A
C1156     Br1157   1.914       .  S
C1161      C1162   1.417       .  A
C1161      C1166   1.403       .  A
C1161     Br1168   1.930       .  S
C1162      C1163   1.420       .  A
C1163      C1164   1.416       .  A
C1163     Br1170   1.932       .  S
C1164      C1165   1.416       .  A
C1164     Br1169   1.923       .  S
C1165      C1166   1.413       .  A
C1166     Br1167   1.916       .  S
C1171      C1172   1.411   1_545  A
C1171      C1176   1.406   1_455  A
C1171     Br1178   1.911       .  S
C1172      C1173   1.421       .  A
C1173      C1174   1.408   1_455  A
C1173     Br1180   1.924       .  S
C1174      C1175   1.404       .  A
C1174     Br1179   1.935       .  S
C1175      C1176   1.402   1_565  A
C1176     Br1177   1.932       .  S
C1181      C1182   1.412       .  A
C1181      C1186   1.403       .  A
C1181     Br1188   1.935       .  S
C1182      C1183   1.409       .  A
C1183      C1184   1.406       .  A
C1183     Br1190   1.931       .  S
C1184      C1185   1.408   1_455  A
C1184     Br1189   1.930   1_455  S
C1185      C1186   1.410   1_655  A
C1186     Br1187   1.933   1_455  S
C1191      C1192   1.427       .  A
C1191      C1196   1.415       .  A
C1191     Br1198   1.934       .  S
C1192      C1193   1.423       .  A
C1193      C1194   1.421       .  A
C1193     Br1200   1.938       .  S
C1194      C1195   1.426       .  A
C1194     Br1199   1.941       .  S
C1195      C1196   1.418       .  A
C1196     Br1197   1.927       .  S
C1201      C1202   1.407   1_565  A
C1201      C1206   1.404       .  A
C1201     Br1208   1.933       .  S
C1202      C1203   1.409       .  A
C1203      C1204   1.411       .  A
C1203     Br1210   1.919       .  S
C1204      C1205   1.411   1_545  A
C1204     Br1209   1.925       .  S
C1205      C1206   1.409       .  A
C1206     Br1207   1.913       .  S
C1211      C1212   1.418       .  A
C1211      C1216   1.415       .  A
C1211     Br1218   1.932       .  S
C1212      C1213   1.406       .  A
C1213      C1214   1.393       .  A
C1213     Br1220   1.924   1_565  S
C1214      C1215   1.418       .  A
C1214     Br1219   1.934       .  S
C1215      C1216   1.421       .  A
C1216     Br1217   1.935       .  S
C1221      C1222   1.409   1_545  A
C1221      C1226   1.412   1_655  A
C1221     Br1228   1.926       .  S
C1222      C1223   1.397       .  A
C1223      C1224   1.405   1_655  A
C1223     Br1230   1.937       .  S
C1224      C1225   1.417       .  A
C1224     Br1229   1.902       .  S
C1225      C1226   1.415   1_565  A
C1226     Br1227   1.918       .  S
C1231      C1232   1.404       .  A
C1231      C1236   1.407       .  A
C1231     Br1238   1.922       .  S
C1232      C1233   1.418       .  A
C1233      C1234   1.416       .  A
C1233     Br1240   1.929       .  S
C1234      C1235   1.414       .  A
C1234     Br1239   1.929       .  S
C1235      C1236   1.416       .  A
C1236     Br1237   1.915       .  S
C1241      C1242   1.425       .  A
C1241      C1246   1.406       .  A
C1241     Br1248   1.958       .  S
C1242      C1243   1.422       .  A
C1243      C1244   1.413       .  A
C1243     Br1250   1.930       .  S
C1244      C1245   1.415       .  A
C1244     Br1249   1.930       .  S
C1245      C1246   1.417       .  A
C1246     Br1247   1.924       .  S
C1251      C1252   1.408       .  A
C1251      C1256   1.405       .  A
C1251     Br1258   1.922       .  S
C1252      C1253   1.416       .  A
C1253      C1254   1.414       .  A
C1253     Br1260   1.922       .  S
C1254      C1255   1.415       .  A
C1254     Br1259   1.931       .  S
C1255      C1256   1.413       .  A
C1256     Br1257   1.919       .  S
C1261      C1262   1.414       .  A
C1261      C1266   1.412       .  A
C1261     Br1268   1.934       .  S
C1262      C1263   1.421       .  A
C1263      C1264   1.418       .  A
C1263     Br1270   1.938       .  S
C1264      C1265   1.428       .  A
C1264     Br1269   1.930       .  S
C1265      C1266   1.418       .  A
C1266     Br1267   1.925       .  S
C1271      C1272   1.417       .  A
C1271      C1276   1.407   1_455  A
C1271     Br1278   1.916       .  S
C1272      C1273   1.424       .  A
C1273      C1274   1.418   1_455  A
C1273     Br1280   1.934       .  S
C1274      C1275   1.412       .  A
C1274     Br1279   1.932       .  S
C1275      C1276   1.402       .  A
C1276     Br1277   1.930       .  S
C1281      C1282   1.404       .  A
C1281      C1286   1.411       .  A
C1281     Br1288   1.933       .  S
C1282      C1283   1.404       .  A
C1283      C1284   1.408       .  A
C1283     Br1290   1.942       .  S
C1284      C1285   1.432       .  A
C1284     Br1289   1.929       .  S
C1285      C1286   1.429       .  A
C1286     Br1287   1.930       .  S
C1291      C1292   1.426       .  A
C1291      C1296   1.411       .  A
C1291     Br1298   1.937       .  S
C1292      C1293   1.425       .  A
C1293      C1294   1.413       .  A
C1293     Br1300   1.926       .  S
C1294      C1295   1.406       .  A
C1294     Br1299   1.934       .  S
C1295      C1296   1.407       .  A
C1296     Br1297   1.932       .  S
C1301      C1302   1.410       .  A
C1301      C1306   1.402       .  A
C1301     Br1308   1.939       .  S
C1302      C1303   1.409       .  A
C1303      C1304   1.417   1_545  A
C1303     Br1310   1.933   1_545  S
C1304      C1305   1.424   1_565  A
C1304     Br1309   1.924       .  S
C1305      C1306   1.423       .  A
C1306     Br1307   1.933       .  S
C1311      C1312   1.411       .  A
C1311      C1316   1.400       .  A
C1311     Br1318   1.931       .  S
C1312      C1313   1.424       .  A
C1313      C1314   1.411       .  A
C1313     Br1320   1.936   1_545  S
C1314      C1315   1.406       .  A
C1314     Br1319   1.931       .  S
C1315      C1316   1.412       .  A
C1316     Br1317   1.936       .  S
C1321      C1322   1.402       .  A
C1321      C1326   1.406       .  A
C1321     Br1328   1.934       .  S
C1322      C1323   1.399       .  A
C1323      C1324   1.408       .  A
C1323     Br1330   1.934       .  S
C1324      C1325   1.431       .  A
C1324     Br1329   1.937       .  S
C1325      C1326   1.429       .  A
C1326     Br1327   1.940       .  S
C1331      C1332   1.407       .  A
C1331      C1336   1.411       .  A
C1331     Br1338   1.936       .  S
C1332      C1333   1.404       .  A
C1333      C1334   1.408       .  A
C1333     Br1340   1.939       .  S
C1334      C1335   1.430       .  A
C1334     Br1339   1.929       .  S
C1335      C1336   1.426       .  A
C1336     Br1337   1.930       .  S
C1341      C1342   1.404       .  A
C1341      C1346   1.410       .  A
C1341     Br1348   1.930       .  S
C1342      C1343   1.408       .  A
C1343      C1344   1.405   1_545  A
C1343     Br1350   1.934   1_545  S
C1344      C1345   1.416   1_565  A
C1344     Br1349   1.924       .  S
C1345      C1346   1.426       .  A
C1346     Br1347   1.935       .  S
C1351      C1352   1.411       .  A
C1351      C1356   1.414   1_565  A
C1351     Br1358   1.937       .  S
C1352      C1353   1.405       .  A
C1353      C1354   1.408   1_565  A
C1353     Br1360   1.942       .  S
C1354      C1355   1.432       .  A
C1354     Br1359   1.933       .  S
C1355      C1356   1.428       .  A
C1356     Br1357   1.935       .  S
C1361      C1362   1.401       .  A
C1361      C1366   1.415       .  A
C1361     Br1368   1.936       .  S
C1362      C1363   1.401       .  A
C1363      C1364   1.409       .  A
C1363     Br1370   1.936       .  S
C1364      C1365   1.434       .  A
C1364     Br1369   1.940       .  S
C1365      C1366   1.437       .  A
C1366     Br1367   1.936       .  S
C1371      C1372   1.434       .  A
C1371      C1376   1.408       .  A
C1371     Br1378   1.930       .  S
C1372      C1373   1.436       .  A
C1373      C1374   1.417       .  A
C1373     Br1380   1.932       .  S
C1374      C1375   1.401       .  A
C1374     Br1379   1.934       .  S
C1375      C1376   1.400       .  A
C1376     Br1377   1.940       .  S
C1381      C1382   1.399       .  A
C1381      C1386   1.405   1_545  A
C1381     Br1388   1.935   1_545  S
C1382      C1383   1.399       .  A
C1383      C1384   1.410       .  A
C1383     Br1390   1.936       .  S
C1384      C1385   1.432       .  A
C1384     Br1389   1.928       .  S
C1385      C1386   1.431   1_545  A
C1386     Br1387   1.933       .  S
C1391      C1392   1.407       .  A
C1391      C1396   1.407   1_565  A
C1391     Br1398   1.936       .  S
C1392      C1393   1.407   1_565  A
C1393      C1394   1.411       .  A
C1393     Br1400   1.942       .  S
C1394      C1395   1.431       .  A
C1394     Br1399   1.930       .  S
C1395      C1396   1.426       .  A
C1396     Br1397   1.934       .  S
C1401      C1402   1.423       .  A
C1401      C1406   1.405       .  A
C1401     Br1408   1.926   1_545  S
C1402      C1403   1.426       .  A
C1403      C1404   1.415       .  A
C1403     Br1410   1.935       .  S
C1404      C1405   1.414       .  A
C1404     Br1409   1.935       .  S
C1405      C1406   1.408       .  A
C1406     Br1407   1.941       .  S
C1411      C1412   1.402       .  A
C1411      C1416   1.410       .  A
C1411     Br1418   1.921   1_565  S
C1412      C1413   1.407       .  A
C1413      C1414   1.401       .  A
C1413     Br1420   1.924       .  S
C1414      C1415   1.412       .  A
C1414     Br1419   1.919       .  S
C1415      C1416   1.415       .  A
C1416     Br1417   1.907   1_565  S
C1421      C1422   1.422   1_545  A
C1421      C1426   1.410       .  A
C1421     Br1428   1.935   1_545  S
C1422      C1423   1.424       .  A
C1423      C1424   1.406   1_565  A
C1423     Br1430   1.919       .  S
C1424      C1425   1.405       .  A
C1424     Br1429   1.939       .  S
C1425      C1426   1.410       .  A
C1426     Br1427   1.932       .  S
C1431      C1432   1.409       .  A
C1431      C1436   1.409       .  A
C1431     Br1438   1.934       .  S
C1432      C1433   1.396       .  A
C1433      C1434   1.398       .  A
C1433     Br1440   1.931       .  S
C1434      C1435   1.411       .  A
C1434     Br1439   1.908       .  S
C1435      C1436   1.421       .  A
C1436     Br1437   1.935       .  S
C1441      C1442   1.415       .  A
C1441      C1446   1.412       .  A
C1441     Br1448   1.938       .  S
C1442      C1443   1.411       .  A
C1443      C1444   1.408       .  A
C1443     Br1450   1.941       .  S
C1444      C1445   1.431       .  A
C1444     Br1449   1.947       .  S
C1445      C1446   1.424       .  A
C1446     Br1447   1.937       .  S
C1451      C1452   1.412       .  A
C1451      C1456   1.411       .  A
C1451     Br1458   1.921       .  S
C1452      C1453   1.415       .  A
C1453      C1454   1.410       .  A
C1453     Br1460   1.931       .  S
C1454      C1455   1.424       .  A
C1454     Br1459   1.932       .  S
C1455      C1456   1.424       .  A
C1456     Br1457   1.943       .  S
C1461      C1462   1.411       .  A
C1461      C1466   1.414       .  A
C1461     Br1468   1.926       .  S
C1462      C1463   1.398       .  A
C1463      C1464   1.399       .  A
C1463     Br1470   1.920       .  S
C1464      C1465   1.419       .  A
C1464     Br1469   1.925       .  S
C1465      C1466   1.426       .  A
C1466     Br1467   1.934       .  S
C1471      C1472   1.425       .  A
C1471      C1476   1.412       .  A
C1471     Br1478   1.926       .  S
C1472      C1473   1.416       .  A
C1473      C1474   1.402       .  A
C1473     Br1480   1.920       .  S
C1474      C1475   1.406       .  A
C1474     Br1479   1.936       .  S
C1475      C1476   1.405       .  A
C1476     Br1477   1.932       .  S
C1481      C1482   1.410       .  A
C1481      C1486   1.408       .  A
C1481     Br1488   1.917       .  S
C1482      C1483   1.415   1_565  A
C1483      C1484   1.419       .  A
C1483     Br1490   1.930       .  S
C1484      C1485   1.425   1_545  A
C1484     Br1489   1.937       .  S
C1485      C1486   1.417       .  A
C1486     Br1487   1.924       .  S
C1491      C1492   1.436       .  A
C1491      C1496   1.406       .  A
C1491     Br1498   1.936   1_545  S
C1492      C1493   1.424       .  A
C1493      C1494   1.416       .  A
C1493     Br1500   1.930       .  S
C1494      C1495   1.412       .  A
C1494     Br1499   1.935       .  S
C1495      C1496   1.404       .  A
C1496     Br1497   1.946       .  S
C1501      C1502   1.424   1_545  A
C1501      C1506   1.423       .  A
C1501     Br1508   1.928       .  S
C1502      C1503   1.417       .  A
C1503      C1504   1.395       .  A
C1503     Br1510   1.915       .  S
C1504      C1505   1.399       .  A
C1504     Br1509   1.917       .  S
C1505      C1506   1.413   1_565  A
C1506     Br1507   1.929       .  S
C1511      C1512   1.415       .  A
C1511      C1516   1.411       .  A
C1511     Br1518   1.920       .  S
C1512      C1513   1.417       .  A
C1513      C1514   1.410       .  A
C1513     Br1520   1.932       .  S
C1514      C1515   1.417       .  A
C1514     Br1519   1.921       .  S
C1515      C1516   1.409       .  A
C1516     Br1517   1.921       .  S
C1521      C1522   1.427       .  A
C1521      C1526   1.415       .  A
C1521     Br1528   1.928       .  S
C1522      C1523   1.442   1_545  A
C1523      C1524   1.410   1_565  A
C1523     Br1530   1.944       .  S
C1524      C1525   1.403       .  A
C1524     Br1529   1.944   1_545  S
C1525      C1526   1.409       .  A
C1526     Br1527   1.936       .  S
C1531      C1532   1.411       .  A
C1531      C1536   1.413       .  A
C1531     Br1538   1.930       .  S
C1532      C1533   1.405       .  A
C1533      C1534   1.405       .  A
C1533     Br1540   1.922       .  S
C1534      C1535   1.413       .  A
C1534     Br1539   1.917       .  S
C1535      C1536   1.416       .  A
C1536     Br1537   1.924       .  S
C1541      C1542   1.415       .  A
C1541      C1546   1.404       .  A
C1541     Br1548   1.936       .  S
C1542      C1543   1.403       .  A
C1543      C1544   1.404       .  A
C1543     Br1550   1.927       .  S
C1544      C1545   1.414       .  A
C1544     Br1549   1.918       .  S
C1545      C1546   1.421       .  A
C1546     Br1547   1.944       .  S
C1551      C1552   1.433       .  A
C1551      C1556   1.407       .  A
C1551     Br1558   1.941       .  S
C1552      C1553   1.435       .  A
C1553      C1554   1.407       .  A
C1553     Br1560   1.936       .  S
C1554      C1555   1.396       .  A
C1554     Br1559   1.936       .  S
C1555      C1556   1.401       .  A
C1556     Br1557   1.934       .  S
C1561      C1562   1.408       .  A
C1561      C1566   1.403       .  A
C1561     Br1568   1.914       .  S
C1562      C1563   1.409       .  A
C1563      C1564   1.413       .  A
C1563     Br1570   1.919       .  S
C1564      C1565   1.414       .  A
C1564     Br1569   1.925       .  S
C1565      C1566   1.407       .  A
C1566     Br1567   1.921       .  S
C1571      C1572   1.414       .  A
C1571      C1576   1.405       .  A
C1571     Br1578   1.929       .  S
C1572      C1573   1.411       .  A
C1573      C1574   1.407       .  A
C1573     Br1580   1.924       .  S
C1574      C1575   1.414       .  A
C1574     Br1579   1.936       .  S
C1575      C1576   1.405       .  A
C1576     Br1577   1.921       .  S
C1581      C1582   1.437       .  A
C1581      C1586   1.416       .  A
C1581     Br1588   1.943       .  S
C1582      C1583   1.435       .  A
C1583      C1584   1.405       .  A
C1583     Br1590   1.934       .  S
C1584      C1585   1.403       .  A
C1584     Br1589   1.936       .  S
C1585      C1586   1.410       .  A
C1586     Br1587   1.937       .  S
C1591      C1592   1.427       .  A
C1591      C1596   1.410       .  A
C1591     Br1598   1.937       .  S
C1592      C1593   1.427       .  A
C1593      C1594   1.409       .  A
C1593     Br1600   1.931       .  S
C1594      C1595   1.403       .  A
C1594     Br1599   1.934       .  S
C1595      C1596   1.406       .  A
C1596     Br1597   1.932       .  S
