geometry optimzed in LAMMPS
_audit_creation_date              2020-11-30 
_audit_creation_method            'lammps2cif' 
_symmetry_space_group_name_H-M    'P1' 
_symmetry_Int_Tables_number       1 
_symmetry_cell_setting            triclinic 
loop_ 
_symmetry_equiv_pos_as_xyz 
  x,y,z 
_cell_length_a                    32.50850915 
_cell_length_b                    32.6483808530121 
_cell_length_c                    78.96888870352927 
_cell_angle_alpha                 90.02703800632618 
_cell_angle_beta                  90.12216282736351 
_cell_angle_gamma                 119.96747524960531 
loop_ 
_atom_site_label 
_atom_site_type_symbol 
_atom_site_fract_x 
_atom_site_fract_y 
_atom_site_fract_z 
_atom_site_charge 
C1          C  0.10050557  0.52145581  0.53649990     0.03300
C2          C  0.08211735  0.50384842  0.52017852    -0.12900
C3          C  0.09552840  0.47447883  0.51156464     0.00800
C4          C  0.12310175  0.45926808  0.52021889    -0.11400
C5          C  0.14551350  0.47950629  0.53567643     0.03300
C6          C  0.13434586  0.51143905  0.54357578    -0.10800
H7          H  0.05833966  0.51370877  0.51417804     0.08900
H8          H  0.12819697  0.43210238  0.51440545     0.06400
H9          H  0.15131698  0.52841577  0.55532018     0.06200
C10         C  0.90758076  0.54416488  0.45298944     0.03300
C11         C  0.92119739  0.55718801  0.47002673    -0.12900
C12         C  0.90250456  0.58086166  0.47931326     0.00800
C13         C  0.86929918  0.59039985  0.47177183    -0.11400
C14         C  0.85519332  0.57748861  0.45500736     0.03300
C15         C  0.87432056  0.55460931  0.44562493    -0.10800
H16         H  0.94604687  0.54895897  0.47612237     0.08900
H17         H  0.85584655  0.60984059  0.47876426     0.06400
H18         H  0.86440008  0.54637508  0.43242636     0.06200
O19         O  0.93810837  0.65704039  0.55685451    -0.85200
O20         O  0.99131742  0.62151208  0.56994784    -0.82200
C21         C  0.02856029  0.62355878  0.57565028     0.98300
O22         O  0.05141791  0.65182021  0.58772214    -0.82300
O23         O  0.10414254  0.73306866  0.57036172    -0.84900
C24         C  0.11447916  0.76939754  0.56185703     1.02800
O25         O  0.08532059  0.78420541  0.56039289    -0.77700
O26         O  0.00271610  0.71364984  0.54569695    -0.77900
C27         C  0.96467476  0.67484872  0.54409343     1.02700
O28         O  0.92823253  0.68568356  0.59064533    -0.85200
O29         O  0.97118704  0.63912521  0.60384040    -0.82300
C30         C  0.99154794  0.66911248  0.61551398     0.98300
O31         O  0.02902793  0.70699407  0.61221660    -0.82300
O32         O  0.08757243  0.78801687  0.59511314    -0.84900
C33         C  0.06753382  0.81268795  0.59347953     1.02800
O34         O  0.03017209  0.79821185  0.58488612    -0.77700
O35         O  0.94688698  0.73529089  0.56951764    -0.77900
C36         C  0.92417195  0.71753821  0.58312694     1.02700
Cr37       Cr  0.96064180  0.65443948  0.58026365     1.93700
Cr38       Cr  0.06422664  0.71888633  0.59068674     1.93200
Cr39       Cr  0.01580507  0.75425102  0.56585520     1.39100
O40         O  0.01395412  0.70945826  0.57894777    -1.22900
C41         C  0.23713168  0.20676031  0.11688305     0.03300
C42         C  0.20336171  0.21739886  0.11007882    -0.12900
C43         C  0.18891430  0.24493354  0.11928228     0.00800
C44         C  0.20761059  0.26060158  0.13555462    -0.11400
C45         C  0.24157819  0.25116775  0.14239574     0.03300
C46         C  0.25615375  0.22402471  0.13313898    -0.10800
H47         H  0.18901962  0.20497430  0.09755125     0.08900
H48         H  0.19647060  0.28144227  0.14289060     0.06400
H49         H  0.28276405  0.21702853  0.13847586     0.06200
C50         C  0.42107224  0.16359900  0.20274116     0.03300
C51         C  0.45577110  0.15360804  0.20913491    -0.12900
C52         C  0.47041898  0.12659446  0.19962082     0.00800
C53         C  0.45027281  0.10994237  0.18364062    -0.11400
C54         C  0.41541491  0.11859206  0.17717122     0.03300
C55         C  0.40117344  0.14592196  0.18658052    -0.10800
H56         H  0.47112578  0.16660532  0.22151576     0.08900
H57         H  0.46151658  0.08948486  0.17612008     0.06400
H58         H  0.37423666  0.15275857  0.18146261     0.06200
O59         O  0.39996693  0.03187601  0.06368834    -0.85200
O60         O  0.35807769  0.08302250  0.05346923    -0.82200
C61         C  0.34012372  0.05660491  0.04075995     0.98300
O62         O  0.30217774  0.01781924  0.04260857    -0.82300
O63         O  0.23840638  0.93404822  0.05775067    -0.84900
C64         C  0.25307893  0.90493024  0.05903153     1.02800
O65         O  0.29132002  0.91614301  0.06679574    -0.77700
O66         O  0.37765541  0.97478874  0.08236241    -0.77900
C67         C  0.40246310  0.99721480  0.06959040     1.02700
O68         O  0.38953566  0.05180474  0.09845204    -0.85200
O69         O  0.33587955  0.09038325  0.08808012    -0.82300
C70         C  0.30089942  0.09205893  0.08193712     0.98300
O71         O  0.28026546  0.06861178  0.06870744    -0.82300
O72         O  0.22248576  0.98254330  0.08397035    -0.84900
C73         C  0.21202188  0.94514623  0.09201106     1.02800
O74         O  0.24136261  0.93045424  0.09302876    -0.77700
O75         O  0.32446322  0.99401382  0.10857573    -0.77900
C76         C  0.36222291  0.03269395  0.11085447     1.02700
Cr77       Cr  0.36738819  0.06071554  0.07588548     1.93700
Cr78       Cr  0.26478171  0.00160479  0.06392862     1.93200
Cr79       Cr  0.30960806  0.95775144  0.08701010     1.39100
O80         O  0.31345984  0.00612225  0.07558324    -1.22900
O81         O  0.27288195  0.32020838  0.22026868    -0.85200
O82         O  0.32467275  0.28147861  0.23220348    -0.82200
C83         C  0.35951786  0.28002124  0.23859965     0.98300
O84         O  0.37954703  0.30391002  0.25186159    -0.82300
O85         O  0.43841559  0.38939436  0.23628310    -0.84900
C86         C  0.44916949  0.42652749  0.22799196     1.02800
O87         O  0.42028935  0.44169209  0.22706795    -0.77700
O88         O  0.33856512  0.37896325  0.21076834    -0.77900
C89         C  0.30080557  0.34055171  0.20808020     1.02700
O90         O  0.25848998  0.34141423  0.25447094    -0.85200
O91         O  0.29997456  0.29156289  0.26649942    -0.82300
C92         C  0.31739113  0.31915944  0.27898686     0.98300
O93         O  0.35653563  0.35686319  0.27714837    -0.82300
O94         O  0.42251485  0.44034418  0.26174974    -0.84900
C95         C  0.40600029  0.46807788  0.26055997     1.02800
O96         O  0.36779752  0.45575438  0.25268684    -0.77700
O97         O  0.28400788  0.39886340  0.23593981    -0.77900
C98         C  0.25749821  0.37673133  0.24838024     1.02700
Cr99       Cr  0.29265101  0.31223503  0.24343876     1.93700
Cr100      Cr  0.39523728  0.37161149  0.25609353     1.93200
Cr101      Cr  0.35184770  0.41499533  0.23232756     1.39100
O102        O  0.34693715  0.36665555  0.24394151    -1.22900
C103        C  0.18292819  0.26905138  0.37004910     0.03300
C104        C  0.19755785  0.28433820  0.35320216    -0.12900
C105        C  0.22359010  0.26789194  0.34408762     0.00800
C106        C  0.23308416  0.23469799  0.35141176    -0.11400
C107        C  0.21865136  0.21874282  0.36789945     0.03300
C108        C  0.19363908  0.23582832  0.37722133    -0.10800
H109        H  0.18941416  0.30931039  0.34724594     0.08900
H110        H  0.25374162  0.22258181  0.34443333     0.06400
H111        H  0.18435440  0.22472799  0.39025243     0.06200
C112        C  0.13583216  0.43688970  0.28203675     0.03300
C113        C  0.11338227  0.41610242  0.29751376    -0.12900
C114        C  0.08238277  0.42871531  0.30521997     0.00800
C115        C  0.07491262  0.46312738  0.29774636    -0.11400
C116        C  0.10221052  0.48979437  0.28394934     0.03300
C117        C  0.13132814  0.47511869  0.27573041    -0.10800
H118        H  0.12018351  0.39044573  0.30367629     0.08900
H119        H  0.04933794  0.47087091  0.30347312     0.06400
H120        H  0.15076995  0.49353398  0.26451999     0.06200
O121        O  0.01453303  0.44151665  0.41946799    -0.85200
O122        O  0.06472258  0.40252339  0.43249541    -0.82200
C123        C  0.03787420  0.38730691  0.44523636     0.98300
O124        O  0.99870380  0.34945527  0.44400042    -0.82300
O125        O  0.91317225  0.28313445  0.43046367    -0.84900
C126        C  0.88654605  0.30073282  0.42860146     1.02800
O127        O  0.89881989  0.33638336  0.41939269    -0.77700
O128        O  0.95667403  0.41536792  0.40104619    -0.77900
C129        C  0.97832877  0.44138454  0.41366114     1.02700
O130        O  0.03284000  0.42103304  0.38537426    -0.85200
O131        O  0.07189820  0.37140441  0.39915890    -0.82300
C132        C  0.07292352  0.33749386  0.40641298     0.98300
O133        O  0.04755970  0.31863864  0.41949574    -0.82300
O134        O  0.95969029  0.25917819  0.40539067    -0.84900
C135        C  0.92248137  0.24804089  0.39690878     1.02800
O136        O  0.90798234  0.27725737  0.39524393    -0.77700
O137        O  0.97143511  0.35490117  0.37725256    -0.77900
C138        C  0.01023503  0.39137067  0.37379157     1.02700
Cr139      Cr  0.04213970  0.40553232  0.40916779     1.93700
Cr140      Cr  0.98090036  0.30643578  0.42403974     1.93200
Cr141      Cr  0.93760431  0.34674196  0.39894933     1.39100
O142        O  0.98663946  0.35231114  0.41058728    -1.22900
C143        C  0.52203332  0.93383537  0.03736307     0.03300
C144        C  0.54481864  0.95382859  0.02187561    -0.12900
C145        C  0.57243583  0.93757286  0.01376911     0.00800
C146        C  0.57778312  0.90184940  0.02139713    -0.11400
C147        C  0.55273388  0.87881028  0.03605309     0.03300
C148        C  0.52524377  0.89547540  0.04412397    -0.10800
H149        H  0.54054565  0.98151105  0.01605194     0.08900
H150        H  0.60132251  0.89142897  0.01558026     0.06400
H151        H  0.50567157  0.87816571  0.05548474     0.06200
C152        C  0.47539627  0.11347971  0.95035006     0.03300
C153        C  0.46485996  0.14627872  0.94271413    -0.12900
C154        C  0.43709313  0.16148496  0.95125850     0.00800
C155        C  0.41954300  0.14401364  0.96733384    -0.11400
C156        C  0.42969172  0.11185454  0.97515345     0.03300
C157        C  0.45843276  0.09728283  0.96688174    -0.10800
H158        H  0.47699491  0.15893119  0.92999905     0.08900
H159        H  0.39721995  0.15511084  0.97373912     0.06400
H160        H  0.46697715  0.07307136  0.97323229     0.06200
O161        O  0.63495616  0.96696846  0.93425127    -0.85200
O162        O  0.59309303  0.01540632  0.92160092    -0.82200
C163        C  0.59151633  0.05012688  0.91528720     0.98300
O164        O  0.61710140  0.07127326  0.90258177    -0.82300
O165        O  0.69969725  0.12930357  0.91979218    -0.84900
C166        C  0.73753409  0.14196818  0.92796844     1.02800
O167        O  0.75582304  0.11578413  0.92869273    -0.77700
O168        O  0.69265293  0.03281849  0.94444287    -0.77900
C169        C  0.65531107  0.99376875  0.94675048     1.02700
O170        O  0.65958492  0.95432544  0.90046645    -0.85200
O171        O  0.60826218  0.99297782  0.88744079    -0.82300
C172        C  0.63608130  0.01392014  0.87523216     0.98300
O173        O  0.67324943  0.05284313  0.87794759    -0.82300
O174        O  0.75419911  0.11751650  0.89424981    -0.84900
C175        C  0.78334653  0.10267784  0.89515086     1.02800
O176        O  0.77258817  0.06525333  0.90322414    -0.77700
O177        O  0.71574946  0.98070343  0.91971932    -0.77900
C178        C  0.69466201  0.95390864  0.90720933     1.02700
Cr179      Cr  0.62761968  0.98623744  0.91093534     1.93700
Cr180      Cr  0.68534480  0.08894603  0.89937944     1.93200
Cr181      Cr  0.73019486  0.04766066  0.92323463     1.39100
O182        O  0.68136534  0.04113223  0.91114661    -1.22900
C183        C  0.86225737  0.61648736  0.70743271     0.03300
C184        C  0.87373927  0.58314142  0.71398132    -0.12900
C185        C  0.90156374  0.56956151  0.70458475     0.00800
C186        C  0.91847856  0.58957920  0.68873009    -0.11400
C187        C  0.90725769  0.62216593  0.68190753     0.03300
C188        C  0.87871538  0.63535974  0.69111511    -0.10800
H189        H  0.86169863  0.56827428  0.72647235     0.08900
H190        H  0.94033029  0.57934739  0.68153308     0.06400
H191        H  0.86894707  0.65956134  0.68549575     0.06200
C192        C  0.79963708  0.77348227  0.61537490     0.03300
C193        C  0.78843097  0.80737428  0.60923299    -0.12900
C194        C  0.75914858  0.81904318  0.61876480     0.00800
C195        C  0.74307494  0.79841749  0.63459543    -0.11400
C196        C  0.75304892  0.76438036  0.64074214     0.03300
C197        C  0.78116892  0.75172660  0.63112641    -0.10800
H198        H  0.80258028  0.82475706  0.59723521     0.08900
H199        H  0.72262035  0.80926018  0.64233182     0.06400
H200        H  0.78902440  0.72531811  0.63596559     0.06200
C201        C  0.57768310  0.88150924  0.78365431     0.03300
C202        C  0.59843313  0.90145488  0.79944858    -0.12900
C203        C  0.58201432  0.92727669  0.80874702     0.00800
C204        C  0.54611416  0.93419990  0.80203754    -0.11400
C205        C  0.52489457  0.91444975  0.78646246     0.03300
C206        C  0.54103214  0.88829258  0.77730771    -0.10800
H207        H  0.62595592  0.89568903  0.80468114     0.08900
H208        H  0.53507597  0.95567042  0.80900929     0.06400
H209        H  0.52497161  0.87300419  0.76518796     0.06200
C210        C  0.76096949  0.83969032  0.87324053     0.03300
C211        C  0.74577701  0.82658543  0.85635722    -0.12900
C212        C  0.76244766  0.80173171  0.84681383     0.00800
C213        C  0.79583846  0.79174432  0.85372782    -0.11400
C214        C  0.81134431  0.80408772  0.87041182     0.03300
C215        C  0.79434821  0.82856047  0.88016949    -0.10800
H216        H  0.72061009  0.83509224  0.85067813     0.08900
H217        H  0.80845550  0.77236438  0.84624459     0.06400
H218        H  0.80575104  0.83738062  0.89321898     0.06200
O219        O  0.67240927  0.77278824  0.74125425    -0.85200
O220        O  0.70119432  0.74596959  0.76866100    -0.82200
C221        C  0.69975690  0.71967675  0.78046723     0.98300
O222        O  0.68750470  0.67705849  0.77745823    -0.82300
O223        O  0.58951707  0.63406540  0.77173367    -0.84900
C224        C  0.55098456  0.62117611  0.76383406     1.02800
O225        O  0.55060250  0.62631036  0.74800427    -0.77700
O226        O  0.59697576  0.71993430  0.74279382    -0.77900
C227        C  0.63019638  0.76152147  0.74530069     1.02700
O228        O  0.71183082  0.72505082  0.72044462    -0.85200
O229        O  0.74517040  0.70347716  0.74785339    -0.82300
C230        C  0.73424795  0.66097051  0.74475272     0.98300
O231        O  0.69290156  0.62795840  0.74783195    -0.82300
O232        O  0.59715329  0.58013625  0.74536409    -0.84900
C233        C  0.58781667  0.57655984  0.72973412     1.02800
O234        O  0.60032293  0.61304565  0.72082924    -0.77700
O235        O  0.64090634  0.70849669  0.71277093    -0.77900
C236        C  0.68274478  0.71912619  0.70895191     1.02700
Cr237      Cr  0.70356216  0.73282573  0.74458187     1.93700
Cr238      Cr  0.64284289  0.63363063  0.75963758     1.93200
Cr239      Cr  0.60132363  0.66822426  0.73197164     1.39100
O240        O  0.64924248  0.67835245  0.74543922    -1.22900
C241        C  0.27478948  0.44930150  0.78541893     0.03300
C242        C  0.27376761  0.42879530  0.80127214    -0.12900
C243        C  0.31521332  0.44556489  0.81092935     0.00800
C244        C  0.35795765  0.48173708  0.80476751    -0.11400
C245        C  0.36112464  0.50009780  0.78856413     0.03300
C246        C  0.31922587  0.48432011  0.77894773    -0.10800
H247        H  0.24111533  0.39948875  0.80605173     0.08900
H248        H  0.38965290  0.49438573  0.81250757     0.06400
H249        H  0.32130073  0.49866044  0.76642944     0.06200
C250        C  0.05644548  0.26900208  0.86726286     0.03300
C251        C  0.05501809  0.28345887  0.85052316    -0.12900
C252        C  0.01149542  0.26535463  0.84182606     0.00800
C253        C  0.96974848  0.23223548  0.84988523    -0.11400
C254        C  0.97052859  0.21726134  0.86638840     0.03300
C255        C  0.01387164  0.23522638  0.87501755    -0.10800
H256        H  0.08755628  0.30915339  0.84438485     0.08900
H257        H  0.93590677  0.21912046  0.84347239     0.06400
H258        H  0.01426188  0.22374166  0.88785744     0.06200
O259        O  0.93908994  0.29274767  0.72853149    -0.85200
O260        O  0.03007537  0.33122199  0.71717676    -0.82200
C261        C  0.02462432  0.35436498  0.70542294     0.98300
O262        O  0.02667315  0.39296592  0.70881134    -0.82300
O263        O  0.00970987  0.45548105  0.72593122    -0.84900
C264        C  0.96595769  0.44194733  0.72690304     1.02800
O265        O  0.93783421  0.40333760  0.73413087    -0.77700
O266        O  0.90711627  0.31488401  0.74841179    -0.77900
C267        C  0.90303265  0.29094747  0.73521108     1.02700
O268        O  0.97100683  0.29732236  0.76291294    -0.85200
O269        O  0.06267991  0.34762495  0.75213871    -0.82300
C270        C  0.10006513  0.38294631  0.74677048     0.98300
O271        O  0.09828706  0.40619958  0.73420860    -0.82300
O272        O  0.07354104  0.46405030  0.75177378    -0.84900
C273        C  0.04734796  0.47543598  0.75991580     1.02800
O274        O  0.00313872  0.44743506  0.76067201    -0.77700
O275        O  0.98088852  0.36211271  0.77442045    -0.77900
C276        C  0.97881419  0.32274389  0.77590186     1.02700
Cr277      Cr  0.00100640  0.32098342  0.74024612     1.93700
Cr278      Cr  0.04889883  0.42567139  0.73082906     1.93200
Cr279      Cr  0.96017382  0.38097747  0.75364329     1.39100
O280        O  0.00325828  0.37623195  0.74152170    -1.22900
O281        O  0.36415571  0.42011510  0.88746532    -0.85200
O282        O  0.27189628  0.37123184  0.89757780    -0.82200
C283        C  0.23450642  0.33687880  0.90340802     0.98300
O284        O  0.23599019  0.31550267  0.91666803    -0.82300
O285        O  0.26286574  0.25546670  0.90237406    -0.84900
C286        C  0.28939114  0.24308710  0.89503398     1.02800
O287        O  0.33380562  0.27107102  0.89431888    -0.77700
O288        O  0.35389979  0.35320571  0.87791852    -0.77900
C289        C  0.35493480  0.39170662  0.87531491     1.02700
O290        O  0.39394719  0.43126337  0.92236246    -0.85200
O291        O  0.30101785  0.39366577  0.93224964    -0.82300
C292        C  0.30696948  0.37468259  0.94520392     0.98300
O293        O  0.30771060  0.33665634  0.94350741    -0.82300
O294        O  0.32752258  0.27120660  0.92904584    -0.84900
C295        C  0.37184694  0.28656292  0.92821016     1.02800
O296        O  0.39867705  0.32410326  0.92029444    -0.77700
O297        O  0.42703284  0.40760690  0.90344822    -0.77900
C298        C  0.43047226  0.43265207  0.91626547     1.02700
Cr299      Cr  0.33273434  0.40058379  0.90999224     1.93700
Cr300      Cr  0.28657204  0.29846415  0.92227298     1.93200
Cr301      Cr  0.37540536  0.33986680  0.89959844     1.39100
O302        O  0.33144405  0.34579063  0.91062575    -1.22900
C303        C  0.37884203  0.50298847  0.03723052     0.03300
C304        C  0.37809797  0.48626224  0.02065456    -0.12900
C305        C  0.33512968  0.46199675  0.01154851     0.00800
C306        C  0.29310583  0.45521158  0.01896798    -0.11400
C307        C  0.29302861  0.47049476  0.03547294     0.03300
C308        C  0.33564895  0.49371542  0.04465118    -0.10800
H309        H  0.41079890  0.49242578  0.01478836     0.08900
H310        H  0.25980398  0.43601269  0.01212042     0.06400
H311        H  0.33492485  0.50383208  0.05766734     0.06200
C312        C  0.61248841  0.53915374  0.95020958     0.03300
C313        C  0.61495857  0.55931702  0.96621028    -0.12900
C314        C  0.65835565  0.58424036  0.97477909     0.00800
C315        C  0.69980214  0.59003559  0.96730128    -0.11400
C316        C  0.69850193  0.57200418  0.95112241     0.03300
C317        C  0.65482300  0.54647166  0.94256401    -0.10800
H318        H  0.58314861  0.55566760  0.97203691     0.08900
H319        H  0.73347484  0.61015285  0.97385433     0.06400
H320        H  0.65391057  0.53253897  0.93002784     0.06200
O321        O  0.59485838  0.60735990  0.06641134    -0.85200
O322        O  0.68484455  0.64825064  0.05334072    -0.82200
C323        C  0.67709465  0.66802263  0.04098148     0.98300
O324        O  0.67387201  0.70434262  0.04358936    -0.82300
O325        O  0.65411372  0.76741478  0.05998528    -0.84900
C326        C  0.60994351  0.75061225  0.06239607     1.02800
O327        O  0.58638616  0.71425375  0.07127151    -0.77700
O328        O  0.56424576  0.63078442  0.08635511    -0.77900
C329        C  0.55906534  0.60568855  0.07328771     1.02700
O330        O  0.63332900  0.61983061  0.10015727    -0.85200
O331        O  0.72246077  0.67154718  0.08696662    -0.82300
C332        C  0.75780124  0.70634577  0.08026224     0.98300
O333        O  0.75179231  0.72751418  0.06778173    -0.82300
O334        O  0.72615101  0.78379136  0.08439757    -0.84900
C335        C  0.70185246  0.79574116  0.09323631     1.02800
O336        O  0.65778891  0.76800637  0.09532871    -0.77700
O337        O  0.64285477  0.68555099  0.11061867    -0.77900
C338        C  0.64361719  0.64766568  0.11257102     1.02700
Cr339      Cr  0.65864711  0.64036998  0.07673680     1.93700
Cr340      Cr  0.69840973  0.74199790  0.06466568     1.93200
Cr341      Cr  0.61581396  0.69878150  0.09016299     1.39100
O342        O  0.65743997  0.69404660  0.07710510    -1.22900
C343        C  0.72053564  0.16859433  0.70389919     0.03300
C344        C  0.71982863  0.14501381  0.68889572    -0.12900
C345        C  0.67669814  0.11475148  0.68074775     0.00800
C346        C  0.63428971  0.10808402  0.68764634    -0.11400
C347        C  0.63432800  0.13324545  0.70200421     0.03300
C348        C  0.67768617  0.16326080  0.71019665    -0.10800
H349        H  0.75277308  0.15031620  0.68350804     0.08900
H350        H  0.60107378  0.08400268  0.68144883     0.06400
H351        H  0.67822437  0.18296589  0.72131820     0.06200
C352        C  0.93941793  0.22965144  0.61313954     0.03300
C353        C  0.94094196  0.24765922  0.62955439    -0.12900
C354        C  0.98478175  0.27544847  0.63782000     0.00800
C355        C  0.02667237  0.28421369  0.62983143    -0.11400
C356        C  0.02563475  0.26574640  0.61381577     0.03300
C357        C  0.98219524  0.23886234  0.60537755    -0.10800
H358        H  0.90832168  0.24028717  0.63581072     0.08900
H359        H  0.06047276  0.30521832  0.63622947     0.06400
H360        H  0.98164961  0.22439633  0.59297227     0.06200
C361        C  0.38843691  0.94689361  0.53860745     0.03300
C362        C  0.34548585  0.91387258  0.54628528    -0.12900
C363        C  0.30250988  0.89560032  0.53735556     0.00800
C364        C  0.30223519  0.91084380  0.52087624    -0.11400
C365        C  0.34443109  0.94365078  0.51295558     0.03300
C366        C  0.38767032  0.96179292  0.52187275    -0.10800
H367        H  0.34560046  0.90156563  0.55902006     0.08900
H368        H  0.26870837  0.89734109  0.51420973     0.06400
H369        H  0.42056985  0.98679350  0.51575448     0.06200
C370        C  0.61324191  0.11182606  0.44899464     0.03300
C371        C  0.61551257  0.08881094  0.46378190    -0.12900
C372        C  0.65877288  0.10447129  0.47226021     0.00800
C373        C  0.70048968  0.14058463  0.46528367    -0.11400
C374        C  0.69943282  0.16427012  0.45062022     0.03300
C375        C  0.65550441  0.15023092  0.44272159    -0.10800
H376        H  0.58377822  0.05919683  0.46894209     0.08900
H377        H  0.73380729  0.15137482  0.47175824     0.06400
H378        H  0.65400379  0.16983214  0.43191248     0.06200
O379        O  0.64993455  0.05584281  0.55179749    -0.85200
O380        O  0.59263738  0.03321120  0.57920195    -0.82200
C381        C  0.56224775  0.99188569  0.57444904     0.98300
O382        O  0.56979509  0.95815815  0.57692736    -0.82300
O383        O  0.61815420  0.91082070  0.57526753    -0.84900
C384        C  0.62897056  0.90992844  0.55998006     1.02800
O385        O  0.65694080  0.94763709  0.55220725    -0.77700
O386        O  0.70886256  0.04436707  0.54557772    -0.77900
C387        C  0.67733373  0.05409338  0.54099077     1.02700
O388        O  0.73434450  0.10495295  0.57302399    -0.85200
O389        O  0.67757392  0.07393414  0.60030837    -0.82300
C390        C  0.65257147  0.04659369  0.61186449     0.98300
O391        O  0.62090313  0.00459464  0.60826228    -0.82300
O392        O  0.67443904  0.96086295  0.60349791    -0.84900
C393        C  0.70318589  0.95099406  0.59635255     1.02800
O394        O  0.71355827  0.96004754  0.58092430    -0.77700
O395        O  0.75911531  0.05485384  0.57756167    -0.77900
C396        C  0.76532828  0.09594370  0.57881938     1.02700
Cr397      Cr  0.66356008  0.06299056  0.57614418     1.93700
Cr398      Cr  0.62358752  0.96248150  0.59009650     1.93200
Cr399      Cr  0.70669914  0.00280994  0.56485119     1.39100
O400        O  0.66450567  0.00914372  0.57700233    -1.22900
O401        O  0.27220875  0.95857528  0.39918766    -0.85200
O402        O  0.36196354  0.99558570  0.38706159    -0.82200
C403        C  0.35290640  0.01419473  0.37466815     0.98300
O404        O  0.35469198  0.05328234  0.37676137    -0.82300
O405        O  0.33951454  0.11960242  0.39235872    -0.84900
C406        C  0.29553127  0.10495851  0.39370212     1.02800
O407        O  0.26928483  0.06787490  0.40196897    -0.77700
O408        O  0.24151578  0.98390209  0.41840932    -0.77900
C409        C  0.23677763  0.95876043  0.40547404     1.06300
O410        O  0.30761761  0.97056987  0.43357920    -0.85200
O411        O  0.39760940  0.01870853  0.42105760    -0.82300
C412        C  0.43419741  0.05189397  0.41431648     0.98300
O413        O  0.43058413  0.07307529  0.40139991    -0.82300
O414        O  0.40740150  0.13359939  0.41761923    -0.84900
C415        C  0.38253445  0.14655819  0.42579077     1.02800
O416        O  0.33803717  0.11975405  0.42704963    -0.77700
O417        O  0.31790828  0.03742936  0.44320400    -0.77900
C418        C  0.31661960  0.99880867  0.44583414     1.02700
Cr419      Cr  0.33488894  0.98936591  0.41022572     1.93700
Cr420      Cr  0.38008954  0.09121602  0.39775556     1.93200
Cr421      Cr  0.29455984  0.05125117  0.42196831     1.39100
O422        O  0.33657072  0.04435903  0.41000601    -1.22900
C423        C  0.05838863  0.84635387  0.37015318     0.03300
C424        C  0.05955724  0.82985294  0.35373699    -0.12900
C425        C  0.01719612  0.80148113  0.34484237     0.00800
C426        C  0.97380208  0.79029611  0.35221935    -0.11400
C427        C  0.97197747  0.80690371  0.36837798     0.03300
C428        C  0.01432535  0.83524827  0.37728376    -0.10800
H429        H  0.09312696  0.83775714  0.34813128     0.08900
H430        H  0.94105787  0.76766946  0.34544338     0.06400
H431        H  0.01287656  0.84776484  0.38985551     0.06200
C432        C  0.28016033  0.88408173  0.28301890     0.03300
C433        C  0.32475763  0.89437216  0.27665367    -0.12900
C434        C  0.36620775  0.92145896  0.28624118     0.00800
C435        C  0.36273480  0.93788977  0.30222200    -0.11400
C436        C  0.31896419  0.92833073  0.30865206     0.03300
C437        C  0.27755461  0.90114911  0.29916660    -0.10800
H438        H  0.32720788  0.88161178  0.26424964     0.08900
H439        H  0.39451396  0.95867177  0.30974333     0.06400
H440        H  0.24358710  0.89374345  0.30425120     0.06200
C441        C  0.93711107  0.76781730  0.11547608     0.03300
C442        C  0.93716572  0.75207788  0.13219148    -0.12900
C443        C  0.98022034  0.76772280  0.14095855     0.00800
C444        C  0.02282499  0.80022393  0.13333401    -0.11400
C445        C  0.02348414  0.81692840  0.11703114     0.03300
C446        C  0.98081777  0.80078333  0.10809497    -0.10800
H447        H  0.90411046  0.72779873  0.13836277     0.08900
H448        H  0.05599866  0.81239371  0.14012323     0.06400
H449        H  0.98189431  0.81297179  0.09525766     0.06200
C450        C  0.72493674  0.59666029  0.20407666     0.03300
C451        C  0.72548599  0.61455048  0.18768795    -0.12900
C452        C  0.68327311  0.59721872  0.17828620     0.00800
C453        C  0.64087082  0.56187886  0.18510121    -0.11400
C454        C  0.63910899  0.54456695  0.20143034     0.03300
C455        C  0.68131339  0.56133271  0.21079096    -0.10800
H456        H  0.75838701  0.64228302  0.18238820     0.08900
H457        H  0.60837409  0.54898495  0.17780952     0.06400
H458        H  0.67999263  0.54740106  0.22333771     0.06200
O459        O  0.02878196  0.75222977  0.21955666    -0.85200
O460        O  0.94004639  0.70079124  0.23268733    -0.82200
C461        C  0.90500532  0.66573048  0.23938958     0.98300
O462        O  0.91051429  0.64696561  0.25270438    -0.82300
O463        O  0.93807613  0.58825078  0.23810474    -0.84900
C464        C  0.96387475  0.57701022  0.22971102     1.02800
O465        O  0.00743124  0.60659201  0.22746508    -0.77700
O466        O  0.02130779  0.68584685  0.21063480    -0.77900
C467        C  0.02057714  0.72328106  0.20762685     1.02700
O468        O  0.06686401  0.76840037  0.25377432    -0.85200
O469        O  0.97751937  0.72939795  0.26653589    -0.82300
C470        C  0.98793868  0.71262263  0.27916241     0.98300
O471        O  0.98878247  0.67471975  0.27746626    -0.82300
O472        O  0.00984371  0.61068098  0.26297359    -0.84900
C473        C  0.05401325  0.62754573  0.26058906     1.02800
O474        O  0.07732975  0.66331524  0.25139163    -0.77700
O475        O  0.09844280  0.74448445  0.23442711    -0.77900
C476        C  0.10277390  0.76925043  0.24742119     1.02700
Cr477      Cr  0.00347619  0.73420635  0.24319603     1.93700
Cr478      Cr  0.96464941  0.63398366  0.25703823     1.93200
Cr479      Cr  0.04802821  0.67585259  0.23169688     1.39100
O480        O  0.00531090  0.68083917  0.24398781    -1.22900
C481        C  0.15735801  0.75041018  0.78409388     0.03300
C482        C  0.13714698  0.75030495  0.79993393    -0.12900
C483        C  0.10997488  0.70783751  0.80872893     0.00800
C484        C  0.10286828  0.66560177  0.80178784    -0.11400
C485        C  0.12139176  0.66473651  0.78595912     0.03300
C486        C  0.14892225  0.70710548  0.77711547    -0.10800
H487        H  0.14159903  0.78288255  0.80524154     0.08900
H488        H  0.08117608  0.63272066  0.80851696     0.06400
H489        H  0.16272261  0.70618390  0.76473095     0.06200
C490        C  0.19134532  0.96782911  0.87275751     0.03300
C491        C  0.20806782  0.96841544  0.85619873    -0.12900
C492        C  0.23254458  0.01102597  0.84717908     0.00800
C493        C  0.24140416  0.05322196  0.85484507    -0.11400
C494        C  0.22564495  0.05343384  0.87125146     0.03300
C495        C  0.20011480  0.01081014  0.88014810    -0.10800
H496        H  0.20170141  0.93580220  0.85027704     0.08900
H497        H  0.26134381  0.08632545  0.84806556     0.06400
H498        H  0.18712420  0.01123809  0.89272713     0.06200
O499        O  0.26091197  0.96290415  0.75512641    -0.85200
O500        O  0.29889640  0.05163688  0.76843053    -0.82200
C501        C  0.31781936  0.04191584  0.78061495     0.98300
O502        O  0.35547805  0.04110262  0.77796960    -0.82300
O503        O  0.42042383  0.02466816  0.76185434    -0.84900
C504        C  0.40431668  0.98092159  0.75931529     1.02800
O505        O  0.36843051  0.95714255  0.75014042    -0.77700
O506        O  0.28430651  0.93356393  0.73472565    -0.77900
C507        C  0.26032055  0.92797463  0.74808706     1.02700
O508        O  0.27127883  0.00053477  0.72134754    -0.85200
O509        O  0.32200271  0.08932573  0.73452680    -0.82300
C510        C  0.35667058  0.12479826  0.74125764     0.98300
O511        O  0.37758814  0.11981043  0.75409559    -0.82300
O512        O  0.43707419  0.09655981  0.73800113    -0.84900
C513        C  0.44871441  0.07302186  0.72858154     1.02800
O514        O  0.42109337  0.02928176  0.72603965    -0.77700
O515        O  0.33802903  0.01190566  0.71096735    -0.77900
C516        C  0.29876491  0.00989334  0.70885270     1.02700
Cr517      Cr  0.29181851  0.02610388  0.74483105     1.93700
Cr518      Cr  0.39386942  0.06763009  0.75723720     1.93200
Cr519      Cr  0.35220149  0.98588348  0.73125668     1.39100
O520        O  0.34651583  0.02661530  0.74441079    -1.22900
C521        C  0.75724678  0.97125233  0.37294109     0.03300
C522        C  0.78907711  0.01557249  0.38018508    -0.12900
C523        C  0.80643884  0.05723864  0.37058964     0.00800
C524        C  0.79148674  0.05425251  0.35377009    -0.11400
C525        C  0.75922896  0.01091879  0.34657506     0.03300
C526        C  0.74307064  0.96931276  0.35593982    -0.10800
H527        H  0.79906369  0.01773244  0.39338880     0.08900
H528        H  0.80403968  0.08615125  0.34629319     0.06400
H529        H  0.71908893  0.93569664  0.35002979     0.06200
C530        C  0.58405373  0.74426114  0.28127640     0.03300
C531        C  0.55044386  0.70042694  0.27412338    -0.12900
C532        C  0.53190303  0.65853463  0.28354322     0.00800
C533        C  0.54749673  0.65994144  0.30011015    -0.11400
C534        C  0.58162501  0.70248995  0.30752853     0.03300
C535        C  0.59985409  0.74486352  0.29809069    -0.10800
H536        H  0.53831290  0.69884386  0.26121946     0.08900
H537        H  0.53356937  0.62724894  0.30720242     0.06400
H538        H  0.62485286  0.77808242  0.30400627     0.06200
C539        C  0.08105368  0.62845270  0.03840677     0.03300
C540        C  0.06736888  0.62648857  0.02126519    -0.12900
C541        C  0.08542570  0.66818017  0.01159675     0.00800
C542        C  0.11781164  0.71135021  0.01901103    -0.11400
C543        C  0.13149127  0.71381924  0.03584376     0.03300
C544        C  0.11230298  0.67282039  0.04567055    -0.10800
H545        H  0.04322723  0.59280158  0.01543466     0.08900
H546        H  0.13160305  0.74376740  0.01175178     0.06400
H547        H  0.12131033  0.67573935  0.05899636     0.06200
C548        C  0.90639986  0.41459094  0.95252462     0.03300
C549        C  0.87272999  0.37111067  0.94524344    -0.12900
C550        C  0.85217143  0.32945140  0.95481616     0.00800
C551        C  0.86551442  0.33059751  0.97164506    -0.11400
C552        C  0.89988530  0.37278669  0.97906155     0.03300
C553        C  0.91976079  0.41503550  0.96963532    -0.10800
H554        H  0.86317421  0.36930557  0.93199841     0.08900
H555        H  0.85090560  0.29786401  0.97875284     0.06400
H556        H  0.94519360  0.44783818  0.97567716     0.06200
C557        C  0.81397260  0.07150194  0.11681790     0.03300
C558        C  0.79750429  0.07029531  0.13340445    -0.12900
C559        C  0.77000326  0.02712122  0.14169441     0.00800
C560        C  0.76065448  0.98508513  0.13387444    -0.11400
C561        C  0.77698179  0.98545883  0.11753185     0.03300
C562        C  0.80280443  0.02847198  0.10882912    -0.10800
H563        H  0.80534495  0.10279138  0.13979845     0.08900
H564        H  0.73946067  0.95173821  0.14038719     0.06400
H565        H  0.81325708  0.02818551  0.09583657     0.06200
C566        C  0.86704478  0.30114833  0.21036150     0.03300
C567        C  0.87847936  0.34538957  0.21725925    -0.12900
C568        C  0.90364712  0.38662311  0.20768855     0.00800
C569        C  0.91791884  0.38396141  0.19126490    -0.11400
C570        C  0.90761712  0.34059575  0.18425168     0.03300
C571        C  0.88242992  0.29899540  0.19383795    -0.10800
H572        H  0.86772401  0.34771276  0.23003986     0.08900
H573        H  0.93730090  0.41602204  0.18386288     0.06400
H574        H  0.87344493  0.26517475  0.18828506     0.06200
O575        O  0.92051547  0.29052330  0.09160032    -0.85200
O576        O  0.95854821  0.37968022  0.10442782    -0.82200
C577        C  0.98170940  0.37328555  0.11600945     0.98300
O578        O  0.02079145  0.37627254  0.11240792    -0.82300
O579        O  0.08449983  0.36170361  0.09475464    -0.84900
C580        C  0.06972100  0.31780025  0.09389463     1.02800
O581        O  0.03139218  0.29080883  0.08621594    -0.77700
O582        O  0.94429133  0.26123201  0.07138944    -0.77900
C583        C  0.91939356  0.25541434  0.08450182     1.02700
O584        O  0.92661274  0.32603895  0.05775292    -0.85200
O585        O  0.97462966  0.41576216  0.07007914    -0.82300
C586        C  0.00973732  0.45261605  0.07586628     0.98300
O587        O  0.03351585  0.44950925  0.08807553    -0.82300
O588        O  0.09181474  0.42754452  0.06969908    -0.84900
C589        C  0.10471394  0.40283564  0.06145432     1.02800
O590        O  0.07835438  0.35841945  0.06055941    -0.77700
O591        O  0.99231921  0.33713946  0.04642469    -0.77900
C592        C  0.95299804  0.33569527  0.04492514     1.02700
Cr593      Cr  0.94885563  0.35325914  0.08089398     1.93700
Cr594      Cr  0.05385120  0.40078022  0.09057140     1.93200
Cr595      Cr  0.01058984  0.31472422  0.06687568     1.39100
O596        O  0.00469531  0.35620692  0.07946908    -1.22900
O597        O  0.70208480  0.00545446  0.26822593    -0.85200
O598        O  0.67675891  0.94980377  0.24095884    -0.82200
C599        C  0.63408310  0.91884058  0.24436767     0.98300
O600        O  0.60140955  0.92811251  0.24181404    -0.82300
O601        O  0.55482392  0.97682844  0.24499746    -0.84900
C602        C  0.55387396  0.98379678  0.26068056     1.02800
O603        O  0.59162816  0.00905074  0.26888848    -0.77700
O604        O  0.68775947  0.06100455  0.27634743    -0.77900
C605        C  0.69971384  0.03047545  0.27974664     1.02700
O606        O  0.75008549  0.09164111  0.24768519    -0.85200
O607        O  0.71915325  0.03613072  0.22018090    -0.82300
C608        C  0.69242349  0.01035919  0.20861082     0.98300
O609        O  0.64914071  0.98146335  0.21166424    -0.82300
O610        O  0.60767220  0.03722002  0.21793597    -0.84900
C611        C  0.59592943  0.06358306  0.22580423     1.02800
O612        O  0.60368207  0.07091145  0.24152587    -0.77700
O613        O  0.69881268  0.11635513  0.24631858    -0.77900
C614        C  0.74050644  0.12410858  0.24442317     1.02700
Cr615      Cr  0.70784666  0.02090535  0.24420759     1.93700
Cr616      Cr  0.60727533  0.98379801  0.23004312     1.93200
Cr617      Cr  0.64646395  0.06138350  0.25732087     1.39100
O618        O  0.65391223  0.02214293  0.24383506    -1.22900
O619        O  0.06433207  0.71465916  0.93269152    -0.85200
O620        O  0.01415679  0.62471553  0.92010706    -0.82200
C621        C  0.97871450  0.58905871  0.91371000     0.98300
O622        O  0.95853585  0.59397774  0.90068143    -0.82300
O623        O  0.89979461  0.61844077  0.91676775    -0.84900
C624        C  0.88738048  0.64298980  0.92530174     1.02800
O625        O  0.91479116  0.68708013  0.92703012    -0.77700
O626        O  0.99743761  0.70307833  0.94293422    -0.77900
C627        C  0.03643949  0.70427712  0.94506699     1.02700
O628        O  0.07598649  0.75086771  0.89883775    -0.85200
O629        O  0.03775146  0.66110801  0.88627194    -0.82300
C630        C  0.01950006  0.67100485  0.87398496     0.98300
O631        O  0.98083330  0.67043840  0.87611766    -0.82300
O632        O  0.91615132  0.68822923  0.89197893    -0.84900
C633        C  0.93204510  0.73222794  0.89387438     1.02800
O634        O  0.96875212  0.75678075  0.90266351    -0.77700
O635        O  0.05252636  0.78111665  0.91887703    -0.77900
C636        C  0.07714481  0.78626923  0.90572359     1.02700
Cr637      Cr  0.04458271  0.68783261  0.90947966     1.93700
Cr638      Cr  0.94246325  0.64562605  0.89707833     1.93200
Cr639      Cr  0.98424252  0.72910461  0.92218013     1.39100
O640        O  0.98999368  0.68752826  0.90954120    -1.22900
C641        C  0.48862298  0.41861375  0.45373812     0.03300
C642        C  0.47995954  0.37648489  0.44567872    -0.12900
C643        C  0.45223384  0.33271135  0.45352857     0.00800
C644        C  0.43381073  0.33052382  0.46964673    -0.11400
C645        C  0.44416679  0.37171203  0.47856881     0.03300
C646        C  0.47033648  0.41568733  0.47025013    -0.10800
H647        H  0.49373719  0.37742115  0.43311930     0.08900
H648        H  0.41030259  0.29611448  0.47507281     0.06400
H649        H  0.47588986  0.44744638  0.47655331     0.06200
C650        C  0.53007444  0.63516458  0.53978843     0.03300
C651        C  0.54054068  0.63140288  0.52265787    -0.12900
C652        C  0.56302605  0.67191514  0.51240001     0.00800
C653        C  0.57464420  0.71584469  0.51918192    -0.11400
C654        C  0.56502912  0.72058369  0.53603677     0.03300
C655        C  0.54302489  0.68024735  0.54636702    -0.10800
H656        H  0.53043474  0.59721970  0.51719349     0.08900
H657        H  0.59214167  0.74702252  0.51123678     0.06400
H658        H  0.53652061  0.68402314  0.55956802     0.06200
O659        O  0.59352551  0.63210489  0.42266032    -0.85200
O660        O  0.63512054  0.72157205  0.43484113    -0.82200
C661        C  0.65244490  0.70974493  0.44692741     0.98300
O662        O  0.69072079  0.70982343  0.44455038    -0.82300
O663        O  0.75448018  0.69176385  0.42865802    -0.84900
C664        C  0.73762818  0.64764139  0.42736841     1.02800
O665        O  0.70016333  0.62271030  0.41896123    -0.77700
O666        O  0.61532370  0.59868837  0.40331329    -0.77900
C667        C  0.59164986  0.59565218  0.41650664     1.02700
O668        O  0.60469640  0.66734679  0.38827778    -0.85200
O669        O  0.65785777  0.75744664  0.40089646    -0.82300
C670        C  0.69295582  0.79274926  0.40761977     0.98300
O671        O  0.71407969  0.78701978  0.42017298    -0.82300
O672        O  0.77162803  0.75994138  0.40374407    -0.84900
C673        C  0.78214729  0.73365523  0.39524336     1.02800
O674        O  0.75234778  0.69005616  0.39352220    -0.77700
O675        O  0.66937894  0.67302027  0.37802221    -0.77900
C676        C  0.63118942  0.67338807  0.37571823     1.02700
Cr677      Cr  0.62635117  0.69443147  0.41157536     1.93700
Cr678      Cr  0.72878356  0.73437848  0.42353985     1.93200
Cr679      Cr  0.68358827  0.64921685  0.39916559     1.39100
O680        O  0.68011322  0.69289291  0.41128407    -1.22900
C681        C  0.40567366  0.30309337  0.70871251     0.03300
C682        C  0.43969543  0.34726006  0.71543463    -0.12900
C683        C  0.45245023  0.38925150  0.70652496     0.00800
C684        C  0.43051955  0.38714813  0.69110738    -0.11400
C685        C  0.39693567  0.34392216  0.68415244     0.03300
C686        C  0.38493439  0.30174602  0.69280917    -0.10800
H687        H  0.45726835  0.34889779  0.72729747     0.08900
H688        H  0.44037076  0.41954704  0.68425181     0.06400
H689        H  0.35959546  0.26812997  0.68720445     0.06200
C690        C  0.23405226  0.08510182  0.61937653     0.03300
C691        C  0.25228529  0.08487553  0.63558564    -0.12900
C692        C  0.23821290  0.04206903  0.64394684     0.00800
C693        C  0.20474725  0.99960754  0.63652201    -0.11400
C694        C  0.18250228  0.99896461  0.62124449     0.03300
C695        C  0.19796068  0.04197314  0.61258637    -0.10800
H696        H  0.27790431  0.11767703  0.64159674     0.08900
H697        H  0.19624773  0.96681444  0.64279655     0.06400
H698        H  0.18259394  0.04183025  0.60040378     0.06200
O699        O  0.38827121  0.38596012  0.60455728    -0.85200
O700        O  0.33820073  0.29783992  0.59071927    -0.82200
C701        C  0.30404674  0.26321647  0.58339113     0.98300
O702        O  0.28577556  0.26976264  0.57014217    -0.82300
O703        O  0.22743463  0.29871536  0.58405243    -0.84900
C704        C  0.21540328  0.32486117  0.59177272     1.02800
O705        O  0.24436470  0.36852376  0.59372422    -0.77700
O706        O  0.32160339  0.38074361  0.61231072    -0.77900
C707        C  0.35786708  0.37793858  0.61592181     1.02700
O708        O  0.41090252  0.42507267  0.57081563    -0.85200
O709        O  0.37088000  0.33589736  0.55747138    -0.82300
C710        C  0.35496034  0.34599987  0.54450634     0.98300
O711        O  0.31750130  0.34825729  0.54559735    -0.82300
O712        O  0.25203733  0.36929818  0.55877302    -0.84900
C713        C  0.26990376  0.41347087  0.56069965     1.02800
O714        O  0.30534248  0.43665753  0.57020044    -0.77700
O715        O  0.38436832  0.45692412  0.58901673    -0.77900
C716        C  0.41233776  0.46135996  0.57702742     1.02700
Cr717      Cr  0.37340180  0.36146859  0.58077393     1.93700
Cr718      Cr  0.27445581  0.32432010  0.56546308     1.93200
Cr719      Cr  0.31480279  0.40759653  0.59063707     1.39100
O720        O  0.32049616  0.36441880  0.57895046    -1.22900
C721        C  0.25277421  0.12994058  0.60940127     0.00000
C722        C  0.22089052  0.13940867  0.60048077    -0.11900
C723        C  0.23686860  0.18101057  0.59099999     0.02200
C724        C  0.28574179  0.21519597  0.59071427    -0.00100
C725        C  0.31769437  0.20520689  0.59922536    -0.11800
C726        C  0.30197748  0.16297215  0.60820227     0.02100
H727        H  0.18308202  0.11457260  0.60113128     0.15100
H728        H  0.35539567  0.23056411  0.59879927     0.15100
C729        C  0.33751657  0.15403012  0.61550514     0.36800
C730        C  0.20193609  0.18819075  0.58226072     0.36700
N731        N  0.36609073  0.14699732  0.62134539    -0.43600
N732        N  0.17359478  0.19341437  0.57524839    -0.43600
C733        C  0.37881886  0.34456528  0.66700900     0.00000
C734        C  0.39635566  0.33068686  0.65333104    -0.11900
C735        C  0.39003903  0.34118076  0.63666160     0.02200
C736        C  0.36487520  0.36546667  0.63340021    -0.00100
C737        C  0.34511313  0.37704035  0.64713744    -0.11800
C738        C  0.35245819  0.36743605  0.66383159     0.02100
H739        H  0.41729996  0.31381422  0.65574295     0.15100
H740        H  0.32528051  0.39513327  0.64488786     0.15100
C741        C  0.33395179  0.38266999  0.67756629     0.36800
C742        C  0.41028981  0.32681898  0.62326370     0.36700
N743        N  0.31930367  0.39498714  0.68859352    -0.43600
N744        N  0.42694754  0.31543053  0.61263290    -0.43600
C745        C  0.57789125  0.67104745  0.49474383     0.00000
C746        C  0.61435923  0.66086895  0.49184566    -0.11900
C747        C  0.63875592  0.67231802  0.47636539     0.02200
C748        C  0.62708074  0.69515848  0.46347683    -0.00100
C749        C  0.58817003  0.70206649  0.46609786    -0.11800
C750        C  0.56356866  0.69004480  0.48145568     0.02100
H751        H  0.62542217  0.64613628  0.50201099     0.15100
H752        H  0.57729666  0.71780275  0.45623896     0.15100
C753        C  0.52437588  0.69867304  0.48349425     0.36800
C754        C  0.67541242  0.66007341  0.47421602     0.36700
N755        N  0.49294362  0.70551097  0.48514160    -0.43600
N756        N  0.70458180  0.64995278  0.47252481    -0.43600
C757        C  0.50342854  0.59220542  0.55065489     0.00000
C758        C  0.46524889  0.58762795  0.56045295    -0.11900
C759        C  0.43706943  0.54688046  0.57004629     0.02200
C760        C  0.44602843  0.50867100  0.56971415    -0.00100
C761        C  0.48554099  0.51414570  0.56052179    -0.11800
C762        C  0.51450028  0.55549288  0.55130900     0.02100
H763        H  0.45638839  0.61554353  0.56024265     0.15100
H764        H  0.49371245  0.48574899  0.56039564     0.15100
C765        C  0.55609838  0.55975472  0.54309049     0.36800
C766        C  0.39802552  0.54482075  0.57944510     0.36700
N767        N  0.58953463  0.56317869  0.53657812    -0.43600
N768        N  0.36694661  0.54349949  0.58702114    -0.43600
C769        C  0.56397802  0.55019059  0.42558613     0.00000
C770        C  0.57236447  0.54936586  0.44300149    -0.11900
C771        C  0.54929384  0.50729459  0.45233918     0.02200
C772        C  0.51492749  0.46482138  0.44442877    -0.00100
C773        C  0.50604474  0.46621439  0.42696287    -0.11800
C774        C  0.53085249  0.50802631  0.41750573     0.02100
H775        H  0.59864489  0.58158939  0.44922778     0.15100
H776        H  0.47949647  0.43448660  0.42060169     0.15100
C777        C  0.52093501  0.50711825  0.39964317     0.36800
C778        C  0.56405444  0.50865148  0.46968934     0.36700
N779        N  0.51317598  0.50652575  0.38530859    -0.43600
N780        N  0.57606908  0.51000254  0.48358587    -0.43600
C781        C  0.38010362  0.35483293  0.52808530     0.00000
C782        C  0.40102482  0.32785066  0.52362531    -0.11900
C783        C  0.42435106  0.33466916  0.50808781     0.02200
C784        C  0.42515320  0.36769072  0.49616924    -0.00100
C785        C  0.40639521  0.39645270  0.50113815    -0.11800
C786        C  0.38556771  0.39135627  0.51711518     0.02100
H787        H  0.39934600  0.30141802  0.53235801     0.15100
H788        H  0.40800552  0.42317048  0.49259506     0.15100
C789        C  0.37471718  0.42702517  0.52267028     0.36800
C790        C  0.44873198  0.30852508  0.50511623     0.36700
N791        N  0.36766167  0.45653284  0.52736824    -0.43600
N792        N  0.46820832  0.28751981  0.50276911    -0.43600
C793        C  0.92234439  0.34052754  0.16654858     0.00000
C794        C  0.96598908  0.34317711  0.16342065    -0.11900
C795        C  0.98595933  0.35320446  0.14714388     0.02200
C796        C  0.96233985  0.36179721  0.13361114    -0.00100
C797        C  0.91764161  0.35728082  0.13681653    -0.11800
C798        C  0.89767696  0.34672038  0.15303287     0.02100
H799        H  0.98526881  0.33893947  0.17386727     0.15100
H800        H  0.89815995  0.36240578  0.12666548     0.15100
C801        C  0.85210627  0.34329270  0.15565462     0.36800
C802        C  0.03075368  0.35463449  0.14491896     0.36700
N803        N  0.81551931  0.34033444  0.15781069    -0.43600
N804        N  0.06652020  0.35549907  0.14315551    -0.43600
C805        C  0.83634737  0.25722123  0.22009105     0.00000
C806        C  0.85220996  0.22528126  0.22380347    -0.11900
C807        C  0.82329653  0.18305960  0.23269873     0.02200
C808        C  0.77678328  0.17143421  0.23761296    -0.00100
C809        C  0.76208741  0.20468103  0.23435667    -0.11800
C810        C  0.79109842  0.24691468  0.22579583     0.02100
H811        H  0.88743950  0.23352914  0.21982955     0.15100
H812        H  0.72695461  0.19728806  0.23809113     0.15100
C813        C  0.77255950  0.27817395  0.22241169     0.36800
C814        C  0.84271157  0.15301338  0.23672601     0.36700
N815        N  0.75793051  0.30341082  0.21977721    -0.43600
N816        N  0.85877609  0.12944384  0.24014980    -0.43600
C817        C  0.84049181  0.11762896  0.10775467     0.00000
C818        C  0.82386127  0.14989387  0.10885328    -0.11900
C819        C  0.84849550  0.19461898  0.10133384     0.02200
C820        C  0.88998928  0.20742617  0.09181348    -0.00100
C821        C  0.90619349  0.17489689  0.09042759    -0.11800
C822        C  0.88257498  0.13085764  0.09854696     0.02100
H823        H  0.79154757  0.14031521  0.11579724     0.15100
H824        H  0.93884177  0.18481110  0.08365027     0.15100
C825        C  0.90429485  0.10160470  0.09820136     0.36800
C826        C  0.83032717  0.22654816  0.10375098     0.36700
N827        N  0.92194036  0.07837118  0.09798109    -0.43600
N828        N  0.81592589  0.25218872  0.10586866    -0.43600
C829        C  0.71258031  0.01430643  0.19147311     0.00000
C830        C  0.68280373  0.00287058  0.17723969    -0.11900
C831        C  0.70119259  0.00809641  0.16085791     0.02200
C832        C  0.75007560  0.02507658  0.15857116    -0.00100
C833        C  0.77987095  0.03646963  0.17264418    -0.11800
C834        C  0.76169695  0.03096731  0.18901067     0.02100
H835        H  0.64526568  0.99040065  0.17888795     0.15100
H836        H  0.81728176  0.04847697  0.17081977     0.15100
C837        C  0.79416826  0.04057887  0.20293644     0.36800
C838        C  0.66954574  0.99634657  0.14653119     0.36700
N839        N  0.82033675  0.04803445  0.21401914    -0.43600
N840        N  0.64443183  0.98708763  0.13498496    -0.43600
C841        C  0.91622742  0.37024159  0.99634901     0.00000
C842        C  0.88314530  0.35447659  0.00958835    -0.11900
C843        C  0.89367277  0.34236973  0.02539258     0.02200
C844        C  0.93868490  0.34646496  0.02828368    -0.00100
C845        C  0.97199768  0.36320595  0.01501619    -0.11800
C846        C  0.96098066  0.37441656  0.99915454     0.02100
H847        H  0.84812293  0.34981900  0.00731543     0.15100
H848        H  0.00666643  0.36667280  0.01686438     0.15100
C849        C  0.99478660  0.38621936  0.98561411     0.36800
C850        C  0.85666103  0.32414623  0.03801416     0.36700
N851        N  0.02195348  0.39482227  0.97484043    -0.43600
N852        N  0.82676709  0.30934167  0.04804358    -0.43600
C853        C  0.92639715  0.45881839  0.94208158     0.00000
C854        C  0.89552493  0.46601464  0.93156051    -0.11900
C855        C  0.91197111  0.50655043  0.92145483     0.02200
C856        C  0.96045712  0.54203748  0.92197250    -0.00100
C857        C  0.99146836  0.53448784  0.93220968    -0.11800
C858        C  0.97523543  0.49339040  0.94197239     0.02100
H859        H  0.85792595  0.44013665  0.93143640     0.15100
H860        H  0.02885908  0.56102612  0.93263691     0.15100
C861        C  0.01018837  0.48753969  0.95125216     0.36800
C862        C  0.87760952  0.51126827  0.91127635     0.36700
N863        N  0.03904245  0.48389301  0.95857462    -0.43600
N864        N  0.84983695  0.51465132  0.90311663    -0.43600
C865        C  0.02525439  0.49918936  0.06768660     0.00000
C866        C  0.07340885  0.53393160  0.06888288    -0.11900
C867        C  0.09222936  0.57571812  0.05946489     0.02200
C868        C  0.06240156  0.58449018  0.04879784    -0.00100
C869        C  0.01384791  0.55042425  0.04798583    -0.11800
C870        C  0.99517667  0.50803161  0.05716320     0.02100
H871        H  0.09726540  0.52743267  0.07656302     0.15100
H872        H  0.99032539  0.55685109  0.04008479     0.15100
C873        C  0.94507651  0.47448656  0.05547863     0.36800
C874        C  0.14292562  0.60735265  0.06027600     0.36700
N875        N  0.90493674  0.44767271  0.05405726    -0.43600
N876        N  0.18354066  0.63263563  0.06103475    -0.43600
C877        C  0.04923284  0.69270721  0.96177389     0.00000
C878        C  0.01293690  0.66573076  0.97343913    -0.11900
C879        C  0.02333497  0.65399193  0.98936067     0.02200
C880        C  0.07085033  0.66911239  0.99383256    -0.00100
C881        C  0.10674758  0.69389505  0.98186888    -0.11800
C882        C  0.09663583  0.70618388  0.96609311     0.02100
H883        H  0.97629090  0.65421602  0.97021608     0.15100
H884        H  0.14341847  0.70587939  0.98525087     0.15100
C885        C  0.13622086  0.73501223  0.95512073     0.36800
C886        C  0.98499131  0.62879778  0.00118607     0.36700
N887        N  0.16800916  0.75827180  0.94638784    -0.43600
N888        N  0.95427592  0.60851627  0.01066822    -0.43600
C889        C  0.61791796  0.68164501  0.35839633     0.00000
C890        C  0.65355367  0.70331079  0.34599761    -0.11900
C891        C  0.64314292  0.71250876  0.32961255     0.02200
C892        C  0.59633285  0.70069692  0.32532087    -0.00100
C893        C  0.56084960  0.67966422  0.33773374    -0.11800
C894        C  0.57095172  0.66977170  0.35401302     0.02100
H895        H  0.68978391  0.71272072  0.34902944     0.15100
H896        H  0.52450141  0.66937222  0.33446996     0.15100
C897        C  0.53171550  0.64507459  0.36555306     0.36800
C898        C  0.68051572  0.73110252  0.31716155     0.36700
N899        N  0.50014699  0.62500326  0.37473051    -0.43600
N900        N  0.71067926  0.74556018  0.30724875    -0.43600
C901        C  0.59885398  0.78889704  0.27138153     0.00000
C902        C  0.56338134  0.79434771  0.26325235    -0.11900
C903        C  0.57416732  0.83467312  0.25369637     0.02200
C904        C  0.62185198  0.87213248  0.25221984    -0.00100
C905        C  0.65761253  0.86626104  0.26000694    -0.11800
C906        C  0.64664415  0.82526478  0.26939575     0.02100
H907        H  0.52652116  0.76688548  0.26449962     0.15100
H908        H  0.69434107  0.89419412  0.25905517     0.15100
C909        C  0.68539581  0.82104727  0.27634561     0.36800
C910        C  0.53499527  0.83591699  0.24551333     0.36700
N911        N  0.71697355  0.81820489  0.28175359    -0.43600
N912        N  0.50348883  0.83666234  0.23896395    -0.43600
C913        C  0.73930098  0.92704393  0.38307397     0.00000
C914        C  0.77183832  0.91955408  0.39237371    -0.11900
C915        C  0.75736915  0.87719177  0.40114474     0.02200
C916        C  0.70924220  0.84072432  0.40057914    -0.00100
C917        C  0.67641974  0.84899964  0.39181144    -0.11800
C918        C  0.69077378  0.89169190  0.38331092     0.02100
H919        H  0.80914164  0.94640261  0.39236335     0.15100
H920        H  0.63924755  0.82181792  0.39150966     0.15100
C921        C  0.65468435  0.89851676  0.37527670     0.36800
C922        C  0.79334251  0.87162452  0.40987341     0.36700
N923        N  0.62570186  0.90387309  0.36883671    -0.43600
N924        N  0.82240540  0.86758117  0.41688930    -0.43600
C925        C  0.74058078  0.01076542  0.32955281     0.00000
C926        C  0.70767591  0.02640429  0.32777643    -0.11900
C927        C  0.69337254  0.03281624  0.31172925     0.02200
C928        C  0.71290164  0.02424782  0.29711760    -0.00100
C929        C  0.74498288  0.00738124  0.29902265    -0.11800
C930        C  0.75885044  0.00059762  0.31505552     0.02100
H931        H  0.69355390  0.03411400  0.33900325     0.15100
H932        H  0.75999217  0.00017565  0.28793248     0.15100
C933        C  0.79289401  0.98459389  0.31632342     0.36800
C934        C  0.65752096  0.04650115  0.31066931     0.36700
N935        N  0.82013596  0.97170400  0.31728803    -0.43600
N936        N  0.62852152  0.05711799  0.30982655    -0.43600
C937        C  0.37285749  0.17179548  0.73356095     0.00000
C938        C  0.36983402  0.20700043  0.74266783    -0.11900
C939        C  0.37984807  0.24972699  0.73485988     0.02200
C940        C  0.39427771  0.25827969  0.71767749    -0.00100
C941        C  0.39822329  0.22319017  0.70875141    -0.11800
C942        C  0.38753239  0.18033321  0.71646956     0.02100
H943        H  0.35768108  0.20029729  0.75568648     0.15100
H944        H  0.40982091  0.22932294  0.69566550     0.15100
C945        C  0.39269462  0.14587168  0.70662505     0.36800
C946        C  0.37160695  0.28240273  0.74450034     0.36700
N947        N  0.39712531  0.11852948  0.69868790    -0.43600
N948        N  0.36404219  0.30755287  0.75251241    -0.43600
C949        C  0.28513817  0.01950365  0.69198685     0.00000
C950        C  0.25167716  0.03483067  0.69120435    -0.11900
C951        C  0.23791029  0.04494336  0.67567623     0.02200
C952        C  0.25791170  0.04010503  0.66055936    -0.00100
C953        C  0.29175141  0.02553332  0.66122841    -0.11800
C954        C  0.30560325  0.01530297  0.67672773     0.02100
H955        H  0.23598444  0.03876734  0.70275446     0.15100
H956        H  0.30618839  0.02062423  0.64952276     0.15100
C957        C  0.33910755  0.99848280  0.67641279     0.36800
C958        C  0.20175959  0.05832030  0.67545634     0.36700
N959        N  0.36589204  0.98492670  0.67612906    -0.43600
N960        N  0.17268259  0.06889710  0.67522872    -0.43600
C961        C  0.25027163  0.01297949  0.82977244     0.00000
C962        C  0.28897601  0.00603885  0.82725892    -0.11900
C963        C  0.31172725  0.01516688  0.81149152     0.02200
C964        C  0.29546926  0.03152109  0.79775338    -0.00100
C965        C  0.25540724  0.03662475  0.80028661    -0.11800
C966        C  0.23300610  0.02767646  0.81605830     0.02100
H967        H  0.30253702  0.99507727  0.83784207     0.15100
H968        H  0.24163976  0.04820890  0.78996502     0.15100
C969        C  0.19231740  0.03397032  0.81791850     0.36800
C970        C  0.35194614  0.00798125  0.81007463     0.36700
N971        N  0.15966874  0.03893399  0.81941574    -0.43600
N972        N  0.38428415  0.00232622  0.80912796    -0.43600
C973        C  0.16261374  0.92194862  0.88182092     0.00000
C974        C  0.12493588  0.88445362  0.87309601    -0.11900
C975        C  0.09681401  0.84053775  0.88081745     0.02200
C976        C  0.10570164  0.83322921  0.89773882    -0.00100
C977        C  0.14274825  0.87066630  0.90667288    -0.11800
C978        C  0.17153733  0.91464516  0.89882387     0.02100
H979        H  0.11704075  0.88963719  0.86018410     0.15100
H980        H  0.15004575  0.86512137  0.91961812     0.15100
C981        C  0.21131298  0.95073188  0.90822086     0.36800
C982        C  0.05774518  0.80406310  0.87124682     0.36700
N983        N  0.24324723  0.97962260  0.91574858    -0.43600
N984        N  0.02630446  0.77530692  0.86349896    -0.43600
C985        C  0.18546743  0.79544272  0.77456282     0.00000
C986        C  0.17512687  0.79781504  0.75735571    -0.11900
C987        C  0.19958659  0.84030898  0.74823555     0.02200
C988        C  0.23433047  0.88146198  0.75645123    -0.00100
C989        C  0.24528628  0.87894833  0.77347144    -0.11800
C990        C  0.22197057  0.83646436  0.78244776     0.02100
H991        H  0.14725454  0.76666180  0.75111009     0.15100
H992        H  0.27292027  0.91034399  0.77972238     0.15100
C993        C  0.23763145  0.83565181  0.79951324     0.36800
C994        C  0.18719421  0.84138835  0.73074564     0.36700
N995        N  0.25030985  0.83501916  0.81316597    -0.43600
N996        N  0.17731207  0.84236853  0.71672197    -0.43600
C997        C  0.08744424  0.70571640  0.82514633     0.00000
C998        C  0.11509836  0.71713528  0.83984082    -0.11900
C999        C  0.09383037  0.70627064  0.85584483     0.02200
C1000       C  0.04367611  0.68364026  0.85729927    -0.00100
C1001       C  0.01632290  0.67439916  0.84250844    -0.11800
C1002       C  0.03772379  0.68476316  0.82652070     0.02100
H1003       H  0.15331628  0.73285864  0.83876730     0.15100
H1004       H  0.97800679  0.65778989  0.84339782     0.15100
C1005       C  0.00797947  0.67241171  0.81163014     0.36800
C1006       C  0.12467687  0.71922319  0.87045115     0.36700
N1007       N  0.98427961  0.66249216  0.79966128    -0.43600
N1008       N  0.14974886  0.72976501  0.88206135    -0.43600
C1009       C  0.94563386  0.52754388  0.22398792     0.00000
C1010       C  0.97909813  0.51269224  0.22190636    -0.11900
C1011       C  0.96560979  0.46640377  0.21759158     0.02200
C1012       C  0.91745890  0.43352635  0.21477142    -0.00100
C1013       C  0.88326305  0.44730685  0.21711734    -0.11800
C1014       C  0.89686746  0.49392917  0.22186098     0.02100
H1015       H  0.01649525  0.53728451  0.22397963     0.15100
H1016       H  0.84605539  0.42188082  0.21487850     0.15100
C1017       C  0.86035065  0.50633163  0.22405064     0.36800
C1018       C  0.00184484  0.45320900  0.21639892     0.36700
N1019       N  0.83094988  0.51608411  0.22585613    -0.43600
N1020       N  0.03091164  0.44269793  0.21556615    -0.43600
C1021       C  0.77020142  0.61390008  0.21382015     0.00000
C1022       C  0.80933477  0.61623956  0.20545001    -0.11900
C1023       C  0.85268121  0.63183915  0.21378184     0.02200
C1024       C  0.85806166  0.64592297  0.23094403    -0.00100
C1025       C  0.81891919  0.64285342  0.23954695    -0.11800
C1026       C  0.77529836  0.62734837  0.23114254     0.02100
H1027       H  0.80581676  0.60500979  0.19233761     0.15100
H1028       H  0.82281546  0.65386018  0.25269067     0.15100
C1029       C  0.73721958  0.62763495  0.24041422     0.36800
C1030       C  0.89034859  0.63060263  0.20456768     0.36700
N1031       N  0.70667958  0.62773047  0.24788796    -0.43600
N1032       N  0.91969753  0.62850007  0.19702242    -0.43600
C1033       C  0.98288899  0.75056210  0.15805545     0.00000
C1034       C  0.00372794  0.72209401  0.15969226    -0.11900
C1035       C  0.01639026  0.71278383  0.17560308     0.02200
C1036       C  0.00866366  0.73265012  0.19036244    -0.00100
C1037       C  0.98668026  0.76026330  0.18867817    -0.11800
C1038       C  0.97374037  0.76919429  0.17272086     0.02100
H1039       H  0.01177481  0.70855344  0.14838344     0.15100
H1040       H  0.97957992  0.77499714  0.19986119     0.15100
C1041       C  0.95304510  0.79925233  0.17157929     0.36800
C1042       C  0.03919931  0.68453437  0.17624362     0.36700
N1043       N  0.93645014  0.82333440  0.17057734    -0.43600
N1044       N  0.05745689  0.66187800  0.17675516    -0.43600
C1045       C  0.41407582  0.93578744  0.27955633     0.00000
C1046       C  0.44895261  0.98383912  0.28056358    -0.11900
C1047       C  0.49531894  0.99961806  0.27522196     0.02200
C1048       C  0.50754663  0.96704723  0.26864644    -0.00100
C1049       C  0.47286515  0.91912134  0.26738387    -0.11800
C1050       C  0.42638202  0.90313282  0.27293541     0.02100
H1051       H  0.43969740  0.00935560  0.28533791     0.15100
H1052       H  0.48213402  0.89425683  0.26198627     0.15100
C1053       C  0.39255623  0.85316344  0.27203318     0.36800
C1054       C  0.52883104  0.04981180  0.27555682     0.36700
N1055       N  0.36550557  0.81308818  0.27124749    -0.43600
N1056       N  0.55557863  0.09002527  0.27570847    -0.43600
C1057       C  0.23594995  0.85430365  0.27315291     0.00000
C1058       C  0.19843495  0.81527512  0.28119238    -0.11900
C1059       C  0.15542536  0.78690215  0.27281054     0.02200
C1060       C  0.14915856  0.79720625  0.25594663    -0.00100
C1061       C  0.18693707  0.83531217  0.24764003    -0.11800
C1062       C  0.23006228  0.86411213  0.25612794     0.02100
H1063       H  0.20281860  0.80682971  0.29411879     0.15100
H1064       H  0.18223041  0.84345510  0.23471556     0.15100
C1065       C  0.26668405  0.90478326  0.24737796     0.36800
C1066       C  0.11881017  0.74659163  0.28174383     0.36700
N1067       N  0.29609010  0.93741203  0.24038254    -0.43600
N1068       N  0.09023572  0.71430345  0.28912519    -0.43600
C1069       C  0.92498853  0.79009518  0.37627555     0.00000
C1070       C  0.89568403  0.74134309  0.37844026    -0.11900
C1071       C  0.84957858  0.72243379  0.38464381     0.02200
C1072       C  0.83099487  0.75262680  0.38836975    -0.00100
C1073       C  0.86104998  0.80180086  0.38660257    -0.11800
C1074       C  0.90786478  0.82066711  0.38075253     0.02100
H1075       H  0.90920140  0.71784126  0.37534963     0.15100
H1076       H  0.84798740  0.82558903  0.38973013     0.15100
C1077       C  0.93732395  0.87126628  0.37913700     0.36800
C1078       C  0.82347681  0.67206909  0.38771690     0.36700
N1079       N  0.96113338  0.91184450  0.37793604    -0.43600
N1080       N  0.80290499  0.63178149  0.39026382    -0.43600
C1081       C  0.01663075  0.78036256  0.32819907     0.00000
C1082       C  0.02623142  0.80763700  0.31351195    -0.11900
C1083       C  0.01812980  0.78662968  0.29742470     0.02200
C1084       C  0.99896073  0.73705574  0.29588922    -0.00100
C1085       C  0.99202856  0.71047847  0.31069650    -0.11800
C1086       C  0.00080506  0.73170994  0.32671781     0.02100
H1087       H  0.03907647  0.84523918  0.31463060     0.15100
H1088       H  0.97892300  0.67280098  0.30979954     0.15100
C1089       C  0.99317562  0.70298519  0.34156293     0.36800
C1090       C  0.03137914  0.81716211  0.28281046     0.36700
N1091       N  0.98747324  0.68033446  0.35353188    -0.43600
N1092       N  0.04250886  0.84188982  0.27115824    -0.43600
C1093       C  0.40360344  0.19539777  0.43230041     0.00000
C1094       C  0.37692197  0.21820252  0.43031988    -0.11900
C1095       C  0.39386375  0.26415482  0.43621482     0.02200
C1096       C  0.43802441  0.28802679  0.44452430    -0.00100
C1097       C  0.46558314  0.26609665  0.44615024    -0.11800
C1098       C  0.44895396  0.22013845  0.43990914     0.02100
H1099       H  0.34257623  0.20004385  0.42406769     0.15100
H1100       H  0.49940295  0.28436848  0.45272564     0.15100
C1101       C  0.47789260  0.19845881  0.44219013     0.36800
C1102       C  0.36490948  0.28586749  0.43391604     0.36700
N1103       N  0.50117277  0.18115791  0.44401402    -0.43600
N1104       N  0.34181542  0.30335116  0.43203812    -0.43600
C1105       C  0.10331290  0.87510120  0.37979108     0.00000
C1106       C  0.14057436  0.91482087  0.37194788    -0.11900
C1107       C  0.18382397  0.94257360  0.38030491     0.02200
C1108       C  0.19035810  0.93119648  0.39697416    -0.00100
C1109       C  0.15318450  0.89186779  0.40497635    -0.11800
C1110       C  0.11004929  0.86342520  0.39646053     0.02100
H1111       H  0.13582232  0.92426518  0.35921760     0.15100
H1112       H  0.15843355  0.88247314  0.41764705     0.15100
C1113       C  0.07447443  0.82099167  0.40470629     0.36800
C1114       C  0.22071263  0.98312819  0.37155457     0.36700
N1115       N  0.04603821  0.78683419  0.41126779    -0.43600
N1116       N  0.24986988  0.01562101  0.36442939    -0.43600
C1117       C  0.31839437  0.94772307  0.32544275     0.00000
C1118       C  0.31466679  0.92096665  0.33977219    -0.11900
C1119       C  0.32481348  0.94146310  0.35591687     0.02200
C1120       C  0.34008739  0.99024365  0.35786431    -0.00100
C1121       C  0.34132789  0.01622209  0.34345833    -0.11800
C1122       C  0.33059101  0.99534807  0.32735980     0.02100
H1123       H  0.30538234  0.88429711  0.33825465     0.15100
H1124       H  0.35162546  0.05321151  0.34468272     0.15100
C1125       C  0.33346366  0.02363821  0.31287469     0.36800
C1126       C  0.31871324  0.91116003  0.37013954     0.36700
N1127       N  0.33547062  0.04608406  0.30123505    -0.43600
N1128       N  0.31358018  0.88670931  0.38150954    -0.43600
C1129       C  0.61158957  0.86315704  0.55214811     0.00000
C1130       C  0.56480474  0.82724654  0.55547504    -0.11900
C1131       C  0.54887206  0.78034948  0.55067238     0.02200
C1132       C  0.58030490  0.76874957  0.54252230    -0.00100
C1133       C  0.62712403  0.80474505  0.53929382    -0.11800
C1134       C  0.64293149  0.85153018  0.54400414     0.02100
H1135       H  0.54080187  0.83584637  0.56204502     0.15100
H1136       H  0.65172788  0.79608265  0.53321957     0.15100
C1137       C  0.69233197  0.88613291  0.54141349     0.36800
C1138       C  0.50006130  0.74519152  0.55396360     0.36700
N1139       N  0.73198905  0.91374593  0.53943014    -0.43600
N1140       N  0.46098103  0.71701261  0.55666372    -0.43600
C1141       C  0.66044671  0.08815011  0.48956992     0.00000
C1142       C  0.68466483  0.06336172  0.49262397    -0.11900
C1143       C  0.69117435  0.05202420  0.50920145     0.02200
C1144       C  0.67280911  0.06535434  0.52307102    -0.00100
C1145       C  0.64868328  0.09027351  0.51982810    -0.11800
C1146       C  0.64323770  0.10244235  0.50337738     0.02100
H1147       H  0.69918746  0.05357293  0.48203443     0.15100
H1148       H  0.63527841  0.10185223  0.53025426     0.15100
C1149       C  0.62361547  0.13320387  0.50116078     0.36800
C1150       C  0.71666118  0.02673782  0.51149309     0.36700
N1151       N  0.60884090  0.15869949  0.49955539    -0.43600
N1152       N  0.73729549  0.00665259  0.51330282    -0.43600
C1153       C  0.48067522  0.06719795  0.42242996     0.00000
C1154       C  0.48227987  0.06922931  0.44014973    -0.11900
C1155       C  0.52467294  0.08444226  0.44900105     0.02200
C1156       C  0.56705089  0.09649015  0.44012314    -0.00100
C1157       C  0.56532435  0.09434089  0.42225559    -0.11800
C1158       C  0.52282548  0.08054680  0.41338474     0.02100
H1159       H  0.45018525  0.06021525  0.44718218     0.15100
H1160       H  0.59720671  0.10313362  0.41516754     0.15100
C1161       C  0.52314296  0.07908975  0.39511681     0.36800
C1162       C  0.52306093  0.08915815  0.46711237     0.36700
N1163       N  0.52344844  0.07802490  0.38046944    -0.43600
N1164       N  0.52012842  0.09212674  0.48160465    -0.43600
C1165       C  0.43424220  0.96223721  0.54758452     0.00000
C1166       C  0.46637282  0.95027089  0.54053024    -0.11900
C1167       C  0.50809282  0.96005645  0.54910302     0.02200
C1168       C  0.51881544  0.98281024  0.56507417    -0.00100
C1169       C  0.48764868  0.99649995  0.57188864    -0.11800
C1170       C  0.44535392  0.98596681  0.56337523     0.02100
H1171       H  0.45830679  0.93223512  0.52840126     0.15100
H1172       H  0.49582618  0.01449301  0.58401925     0.15100
C1173       C  0.41429846  0.00046435  0.57095759     0.36800
C1174       C  0.53997440  0.94744772  0.54095116     0.36700
N1175       N  0.38957979  0.01227648  0.57707408    -0.43600
N1176       N  0.56535533  0.93742939  0.53425289    -0.43600
C1177       C  0.34185063  0.95847669  0.49537346     0.00000
C1178       C  0.35618877  0.00594372  0.49208739    -0.11900
C1179       C  0.34825298  0.02006768  0.47618378     0.02200
C1180       C  0.32550441  0.98614411  0.46309947    -0.00100
C1181       C  0.31268582  0.93889770  0.46635520    -0.11800
C1182       C  0.32050447  0.92492729  0.48223408     0.02100
H1183       H  0.37244242  0.03186625  0.50214249     0.15100
H1184       H  0.29596826  0.91243110  0.45650157     0.15100
C1185       C  0.30638300  0.87579905  0.48473556     0.36800
C1186       C  0.36440066  0.06966892  0.47374172     0.36700
N1187       N  0.29497395  0.83644683  0.48680191    -0.43600
N1188       N  0.37738952  0.10944513  0.47184069    -0.43600
C1189       C  0.07113446  0.27625180  0.60612618     0.00000
C1190       C  0.09350777  0.25132308  0.61168155    -0.11900
C1191       C  0.14044689  0.26585970  0.60700431     0.02200
C1192       C  0.16556338  0.30626112  0.59678698    -0.00100
C1193       C  0.14266164  0.33042007  0.59097014    -0.11800
C1194       C  0.09583317  0.31575368  0.59552928     0.02100
H1195       H  0.07485094  0.22160208  0.62020169     0.15100
H1196       H  0.16160508  0.36114152  0.58291981     0.15100
C1197       C  0.07445063  0.34289691  0.58982316     0.36800
C1198       C  0.16304089  0.24097860  0.61380541     0.36700
N1199       N  0.05714616  0.36452797  0.58530123    -0.43600
N1200       N  0.18110150  0.22113382  0.61940612    -0.43600
C1201       C  0.89315424  0.19836907  0.60454318     0.00000
C1202       C  0.85965545  0.15710463  0.61281749    -0.11900
C1203       C  0.81761605  0.12418796  0.60468992     0.02200
C1204       C  0.80796689  0.13236323  0.58793790    -0.00100
C1205       C  0.84021977  0.17469708  0.57991058    -0.11800
C1206       C  0.88276938  0.20744653  0.58800128     0.02100
H1207       H  0.86699655  0.14988515  0.62553861     0.15100
H1208       H  0.83284188  0.18154494  0.56714894     0.15100
C1209       C  0.91502678  0.25026676  0.57914220     0.36800
C1210       C  0.78461006  0.08249204  0.61397344     0.36700
N1211       N  0.94092653  0.28459290  0.57204199    -0.43600
N1212       N  0.75839932  0.04933516  0.62156885    -0.43600
C1213       C  0.58845902  0.12554743  0.70885379     0.00000
C1214       C  0.57993060  0.11713779  0.72625068    -0.11900
C1215       C  0.53509337  0.10275693  0.73297273     0.02200
C1216       C  0.49740075  0.09529576  0.72213544    -0.00100
C1217       C  0.50607851  0.10588211  0.70491690    -0.11800
C1218       C  0.55152486  0.12212199  0.69826257     0.02100
H1219       H  0.60775916  0.11971398  0.73454904     0.15100
H1220       H  0.47728371  0.10107758  0.69666304     0.15100
C1221       C  0.55927322  0.13547018  0.68061934     0.36800
C1222       C  0.52828907  0.09349833  0.75092834     0.36700
N1223       N  0.56542217  0.14610961  0.66647860    -0.43600
N1224       N  0.52367586  0.08641301  0.76534895    -0.43600
C1225       C  0.67546929  0.09521917  0.66374154     0.00000
C1226       C  0.69911579  0.12720334  0.65064697    -0.11900
C1227       C  0.69216773  0.11245319  0.63377363     0.02200
C1228       C  0.66092711  0.06413007  0.62966172    -0.00100
C1229       C  0.63885538  0.03176084  0.64295815    -0.11800
C1230       C  0.64586987  0.04688600  0.65987015     0.02100
H1231       H  0.72144444  0.16448895  0.65357208     0.15100
H1232       H  0.61588743  0.99452670  0.64017949     0.15100
C1233       C  0.62247072  0.01228172  0.67306238     0.36800
C1234       C  0.71663549  0.14856006  0.62111839     0.36700
N1235       N  0.60379396  0.98468070  0.68367578    -0.43600
N1236       N  0.73631200  0.17764685  0.61104592    -0.43600
C1237       C  0.76264094  0.93959775  0.10943605     0.00000
C1238       C  0.78211701  0.91229310  0.11535639    -0.11900
C1239       C  0.76327546  0.86518286  0.11014761     0.02200
C1240       C  0.72371615  0.84482510  0.09921777    -0.00100
C1241       C  0.70577614  0.87280012  0.09277301    -0.11800
C1242       C  0.72456412  0.91973317  0.09787083     0.02100
H1243       H  0.81114190  0.92744174  0.12440610     0.15100
H1244       H  0.67713883  0.85797982  0.08361913     0.15100
C1245       C  0.70266508  0.94602237  0.09174337     0.36800
C1246       C  0.78390143  0.83801113  0.11653872     0.36700
N1247       N  0.68497044  0.96698333  0.08688010    -0.43600
N1248       N  0.80041195  0.81615143  0.12160460    -0.43600
C1249       C  0.80594730  0.72208023  0.08743450     0.00000
C1250       C  0.81375111  0.68892905  0.09611463    -0.11900
C1251       C  0.85620643  0.70256794  0.10492567     0.02200
C1252       C  0.89190000  0.75079379  0.10565958    -0.00100
C1253       C  0.88466874  0.78374092  0.09653920    -0.11800
C1254       C  0.84265230  0.76990869  0.08737513     0.02100
H1255       H  0.78640521  0.65194813  0.09604798     0.15100
H1256       H  0.91162549  0.82085621  0.09685891     0.15100
C1257       C  0.83766659  0.80610066  0.07869002     0.36800
C1258       C  0.86254957  0.66592960  0.11257858     0.36700
N1259       N  0.83399578  0.83527805  0.07170732    -0.43600
N1260       N  0.86743068  0.63638573  0.11866397    -0.43600
C1261       C  0.68089281  0.61654441  0.16159111     0.00000
C1262       C  0.68940391  0.59773437  0.14695100    -0.11900
C1263       C  0.67748099  0.60713716  0.13088831     0.02200
C1264       C  0.65667796  0.63620480  0.12928731    -0.00100
C1265       C  0.64982585  0.65628520  0.14400187    -0.11800
C1266       C  0.66115847  0.64626439  0.16002728     0.02100
H1267       H  0.70367729  0.57410018  0.14813760     0.15100
H1268       H  0.63428537  0.67886630  0.14305336     0.15100
C1269       C  0.65050837  0.66536417  0.17479688     0.36800
C1270       C  0.68726528  0.58650609  0.11636363     0.36700
N1271       N  0.64180738  0.68047376  0.18664690    -0.43600
N1272       N  0.69510477  0.56978662  0.10477709    -0.43600
C1273       C  0.74410433  0.58505724  0.94278807     0.00000
C1274       C  0.77168267  0.56574543  0.94865753    -0.11900
C1275       C  0.81838505  0.58327262  0.94289135     0.02200
C1276       C  0.83825081  0.62156387  0.93151113    -0.00100
C1277       C  0.81035991  0.64015926  0.92545217    -0.11800
C1278       C  0.76352875  0.62198762  0.93084802     0.02100
H1279       H  0.75711167  0.53786638  0.95806372     0.15100
H1280       H  0.82537534  0.66923406  0.91651079     0.15100
C1281       C  0.73678469  0.64328129  0.92457707     0.36800
C1282       C  0.84609476  0.56337682  0.94945450     0.36700
N1283       N  0.71525767  0.66024428  0.91956726    -0.43600
N1284       N  0.86851463  0.54765879  0.95471387    -0.43600
C1285       C  0.67191349  0.64774030  0.02368560     0.00000
C1286       C  0.66810181  0.60294982  0.02217330    -0.11900
C1287       C  0.66277873  0.58150407  0.00638963     0.02200
C1288       C  0.66095703  0.60465652  0.99165903    -0.00100
C1289       C  0.66428124  0.64900469  0.99294919    -0.11800
C1290       C  0.66975638  0.67078005  0.00876007     0.02100
H1291       H  0.66911625  0.58426761  0.03337303     0.15100
H1292       H  0.66329398  0.66693680  0.98152295     0.15100
C1293       C  0.67389638  0.71691866  0.00909015     0.36800
C1294       C  0.65918655  0.53562803  0.00558409     0.36700
N1295       N  0.67721552  0.75390473  0.00926944    -0.43600
N1296       N  0.65627598  0.49886024  0.00492600    -0.43600
C1297       C  0.24705550  0.45721231  0.04351312     0.00000
C1298       C  0.22137906  0.47928786  0.03838835    -0.11900
C1299       C  0.17516877  0.46338420  0.04441351     0.02200
C1300       C  0.15375778  0.42373870  0.05516619    -0.00100
C1301       C  0.17993334  0.40246631  0.06048960    -0.11800
C1302       C  0.22634660  0.41917656  0.05495810     0.02100
H1303       H  0.23723555  0.50847242  0.02951569     0.15100
H1304       H  0.16397560  0.37255184  0.06907319     0.15100
C1305       C  0.25149865  0.39577800  0.06079698     0.36800
C1306       C  0.14986466  0.48690606  0.03893993     0.36700
N1307       N  0.27170529  0.37716861  0.06554831    -0.43600
N1308       N  0.12958981  0.50582369  0.03459600    -0.43600
C1309       C  0.42432471  0.52884523  0.04701123     0.00000
C1310       C  0.45549312  0.51072059  0.04747984    -0.11900
C1311       C  0.49871311  0.53408871  0.05637976     0.02200
C1312       C  0.51131176  0.57622822  0.06542391    -0.00100
C1313       C  0.47978915  0.59389523  0.06519485    -0.11800
C1314       C  0.43722434  0.57127759  0.05591592     0.02100
H1315       H  0.44607060  0.47809169  0.04083923     0.15100
H1316       H  0.48956902  0.62695273  0.07158812     0.15100
C1317       C  0.40912700  0.59423020  0.05484843     0.36800
C1318       C  0.52925118  0.51375846  0.05607384     0.36700
N1319       N  0.38667881  0.61268065  0.05394250    -0.43600
N1320       N  0.55374038  0.49748290  0.05576150    -0.43600
C1321       C  0.27043042  0.19373454  0.88903647     0.00000
C1322       C  0.30043217  0.17432971  0.89048826    -0.11900
C1323       C  0.28506499  0.12763923  0.88581419     0.02200
C1324       C  0.23919631  0.09946749  0.87910807    -0.00100
C1325       C  0.20865320  0.11806252  0.87783058    -0.11800
C1326       C  0.22356304  0.16463671  0.88298305     0.02100
H1327       H  0.33604340  0.19552434  0.89555767     0.15100
H1328       H  0.17345288  0.09642884  0.87248492     0.15100
C1329       C  0.19035834  0.18154445  0.88147986     0.36800
C1330       C  0.31704101  0.10931382  0.88795162     0.36700
N1331       N  0.16286298  0.19403918  0.88026709    -0.43600
N1332       N  0.34251820  0.09451648  0.88976870    -0.43600
C1333       C  0.47694514  0.46170296  0.92464633     0.00000
C1334       C  0.48159405  0.45170284  0.94156981    -0.11900
C1335       C  0.52553698  0.47532130  0.94988816     0.02200
C1336       C  0.56572529  0.51141084  0.94146294    -0.00100
C1337       C  0.56080982  0.52170168  0.92451686    -0.11800
C1338       C  0.51697660  0.49690942  0.91605467     0.02100
H1339       H  0.45109161  0.42385816  0.94810895     0.15100
H1340       H  0.59114686  0.54952376  0.91792940     0.15100
C1341       C  0.51338880  0.50926421  0.89878837     0.36800
C1342       C  0.52895108  0.45969407  0.96668410     0.36700
N1343       N  0.51031992  0.51924408  0.88497035    -0.43600
N1344       N  0.53177155  0.44694801  0.98008492    -0.43600
C1345       C  0.31419679  0.39772803  0.96213142     0.00000
C1346       C  0.33447954  0.38454983  0.97531475    -0.11900
C1347       C  0.34370614  0.40648559  0.99126485     0.02200
C1348       C  0.33247114  0.44234277  0.99434119    -0.00100
C1349       C  0.31280823  0.45597202  0.98119576    -0.11800
C1350       C  0.30375988  0.43439100  0.96524327     0.02100
H1351       H  0.34333841  0.35704685  0.97317988     0.15100
H1352       H  0.30366176  0.48321164  0.98353617     0.15100
C1353       C  0.28263133  0.45013887  0.95257552     0.36800
C1354       C  0.36285873  0.39021662  0.00446079     0.36700
N1355       N  0.26578221  0.46296435  0.94247023    -0.43600
N1356       N  0.37822392  0.37719601  0.01504286    -0.43600
C1357       C  0.06678284  0.52377037  0.76701600     0.00000
C1358       C  0.11604252  0.55259341  0.76960030    -0.11900
C1359       C  0.13532147  0.59945823  0.77527715     0.02200
C1360       C  0.10518811  0.61817890  0.77811196    -0.00100
C1361       C  0.05645791  0.58996532  0.77524720    -0.11800
C1362       C  0.03692611  0.54334082  0.76989824     0.02100
H1363       H  0.13943400  0.53841729  0.76736132     0.15100
H1364       H  0.03328421  0.60444464  0.77753353     0.15100
C1365       C  0.98608449  0.51744572  0.76724916     0.36800
C1366       C  0.18555163  0.62703181  0.77874472     0.36700
N1367       N  0.94536192  0.49697277  0.76522058    -0.43600
N1368       N  0.22579529  0.64917523  0.78160946    -0.43600
C1369       C  0.76647255  0.20047720  0.71245708     0.00000
C1370       C  0.80356058  0.23573236  0.70286714    -0.11900
C1371       C  0.84791773  0.26577671  0.71017254     0.02200
C1372       C  0.85594189  0.26083594  0.72742933    -0.00100
C1373       C  0.81871363  0.22643220  0.73718403    -0.11800
C1374       C  0.77430350  0.19601041  0.72982634     0.02100
H1375       H  0.79770725  0.24003482  0.68961691     0.15100
H1376       H  0.82477150  0.22245480  0.75044147     0.15100
C1377       C  0.73824545  0.15909388  0.74014981     0.36800
C1378       C  0.88397050  0.30278504  0.69986257     0.36700
N1379       N  0.70938951  0.12942933  0.74841372    -0.43600
N1380       N  0.91248777  0.33268066  0.69158257    -0.43600
C1381       C  0.98866026  0.29491528  0.65507999     0.00000
C1382       C  0.01394488  0.34418764  0.65726319    -0.11900
C1383       C  0.02614574  0.36444937  0.67345338     0.02200
C1384       C  0.01385368  0.33508241  0.68790543    -0.00100
C1385       C  0.98775495  0.28571032  0.68566900    -0.11800
C1386       C  0.97481666  0.26557668  0.66946657     0.02100
H1387       H  0.02530289  0.36689121  0.64620305     0.15100
H1388       H  0.97702157  0.26268757  0.69663290     0.15100
C1389       C  0.94893020  0.21473270  0.66784930     0.36800
C1390       C  0.05282135  0.41537286  0.67475794     0.36700
N1391       N  0.92805714  0.17399299  0.66648265    -0.43600
N1392       N  0.07409490  0.45618505  0.67580270    -0.43600
C1393       C  0.00766746  0.28133452  0.82454328     0.00000
C1394       C  0.98164060  0.24690332  0.81219871    -0.11900
C1395       C  0.97120203  0.25921325  0.79643807     0.02200
C1396       C  0.98705770  0.30719018  0.79266378    -0.00100
C1397       C  0.01374613  0.34172360  0.80494948    -0.11800
C1398       C  0.02412817  0.32928887  0.82073437     0.02100
H1399       H  0.96847160  0.20990312  0.81505464     0.15100
H1400       H  0.02676596  0.37874951  0.80221685     0.15100
C1401       C  0.04992805  0.36623823  0.83301879     0.36800
C1402       C  0.94265561  0.22150851  0.78472297     0.36700
N1403       N  0.07071124  0.39585395  0.84285644    -0.43600
N1404       N  0.91973875  0.19120765  0.77537226    -0.43600
C1405       C  0.10243341  0.28874828  0.87659141     0.00000
C1406       C  0.14067399  0.28766934  0.86883743    -0.11900
C1407       C  0.18390994  0.30386312  0.87736323     0.02200
C1408       C  0.18931870  0.32068343  0.89417038    -0.00100
C1409       C  0.15156751  0.32266677  0.90189305    -0.11800
C1410       C  0.10866975  0.30778619  0.89314167     0.02100
H1411       H  0.13647369  0.27327249  0.85616118     0.15100
H1412       H  0.15599969  0.33685464  0.91460983     0.15100
C1413       C  0.07260258  0.31474976  0.90104271     0.36800
C1414       C  0.22142579  0.30061681  0.86882512     0.36700
N1415       N  0.04379292  0.32068405  0.90726760    -0.43600
N1416       N  0.25088051  0.29713788  0.86191395    -0.43600
C1417       C  0.22984594  0.43282697  0.77545224     0.00000
C1418       C  0.22984461  0.42634518  0.75778280    -0.11900
C1419       C  0.18830161  0.41060735  0.74807338     0.02200
C1420       C  0.14515763  0.39899498  0.75609011    -0.00100
C1421       C  0.14492134  0.40535773  0.77364007    -0.11800
C1422       C  0.18664919  0.42327747  0.78324389     0.02100
H1423       H  0.26228072  0.43324323  0.75149085     0.15100
H1424       H  0.11212327  0.39806511  0.77980380     0.15100
C1425       C  0.18418073  0.43405990  0.80083480     0.36800
C1426       C  0.19059711  0.40576708  0.72998884     0.36700
N1427       N  0.18184826  0.44265597  0.81490053    -0.43600
N1428       N  0.19245171  0.40209494  0.71547421    -0.43600
C1429       C  0.34271608  0.40279819  0.85853630     0.00000
C1430       C  0.32141009  0.43117701  0.85791927    -0.11900
C1431       C  0.30823001  0.44226513  0.84248599     0.02200
C1432       C  0.31639568  0.42491578  0.82732709    -0.00100
C1433       C  0.33623358  0.39542233  0.82788227    -0.11800
C1434       C  0.34921201  0.38401627  0.84330787     0.02100
H1435       H  0.31512868  0.44492962  0.86953311     0.15100
H1436       H  0.34361605  0.38309945  0.81613270     0.15100
C1437       C  0.37117896  0.35499600  0.84299518     0.36800
C1438       C  0.28837966  0.47317645  0.84241832     0.36700
N1439       N  0.38876143  0.33171076  0.84271429    -0.43600
N1440       N  0.27248120  0.49795429  0.84237789    -0.43600
C1441       C  0.55542895  0.52881832  0.72318673     0.00000
C1442       C  0.51738406  0.49887497  0.73370038    -0.11900
C1443       C  0.48384679  0.45342158  0.72859819     0.02200
C1444       C  0.48903963  0.43609825  0.71291461    -0.00100
C1445       C  0.52731028  0.46597816  0.70232240    -0.11800
C1446       C  0.56005721  0.51246367  0.70722733     0.02100
H1447       H  0.51254881  0.51189036  0.74574613     0.15100
H1448       H  0.53097614  0.45321769  0.69005288     0.15100
C1449       C  0.59782438  0.54244297  0.69580993     0.36800
C1450       C  0.44228494  0.42758386  0.73900844     0.36700
N1451       N  0.62795078  0.56665517  0.68663108    -0.43600
N1452       N  0.40897475  0.40845385  0.74747143    -0.43600
C1453       C  0.50469586  0.59398944  0.77218586     0.00000
C1454       C  0.46957628  0.60622631  0.76912002    -0.11900
C1455       C  0.42231425  0.57622168  0.77401969     0.02200
C1456       C  0.40951126  0.53261279  0.78186262    -0.00100
C1457       C  0.44483407  0.52027438  0.78454365    -0.11800
C1458       C  0.49196679  0.55052571  0.77996739     0.02100
H1459       H  0.47904856  0.63903702  0.76262100     0.15100
H1460       H  0.43543099  0.48637232  0.79014542     0.15100
C1461       C  0.52581071  0.53453614  0.78227492     0.36800
C1462       C  0.38812839  0.59132577  0.77099078     0.36700
N1463       N  0.55280569  0.52156079  0.78401476    -0.43600
N1464       N  0.36075834  0.60343426  0.76843556    -0.43600
C1465       C  0.84176653  0.78659356  0.87759837     0.00000
C1466       C  0.88889483  0.81853403  0.88219927    -0.11900
C1467       C  0.91995338  0.80227438  0.88699509     0.02200
C1468       C  0.90360068  0.75302573  0.88725183    -0.00100
C1469       C  0.85627507  0.72151452  0.88258734    -0.11800
C1470       C  0.82553248  0.73767960  0.87792328     0.02100
H1471       H  0.90174390  0.85620613  0.88160797     0.15100
H1472       H  0.84251010  0.68365853  0.88292816     0.15100
C1473       C  0.77712514  0.70310382  0.87359075     0.36800
C1474       C  0.96837311  0.83697634  0.89117279     0.36700
N1475       N  0.73844228  0.67545104  0.87004048    -0.43600
N1476       N  0.00716029  0.86489551  0.89449888    -0.43600
C1477       C  0.71385591  0.73994460  0.79774262     0.00000
C1478       C  0.74172880  0.78945709  0.79949548    -0.11900
C1479       C  0.75649705  0.81058800  0.81543664     0.02200
C1480       C  0.74285880  0.78215597  0.82999724    -0.00100
C1481       C  0.71437751  0.73297185  0.82840354    -0.11800
C1482       C  0.69975280  0.71163517  0.81249578     0.02100
H1483       H  0.75303882  0.81181419  0.78835266     0.15100
H1484       H  0.70427715  0.71110583  0.83967623     0.15100
C1485       C  0.66995552  0.66084156  0.81183731     0.36800
C1486       C  0.78747665  0.86114532  0.81651861     0.36700
N1487       N  0.64609561  0.62012926  0.81136770    -0.43600
N1488       N  0.81249769  0.90163041  0.81740600    -0.43600
C1489       C  0.48893787  0.92494377  0.77916726     0.00000
C1490       C  0.49518278  0.94148824  0.76245908    -0.11900
C1491       C  0.46638884  0.95780040  0.75561456     0.02200
C1492       C  0.43104111  0.95872301  0.76566306    -0.00100
C1493       C  0.42266458  0.93973762  0.78200177    -0.11800
C1494       C  0.45092160  0.92240311  0.78877851     0.02100
H1495       H  0.52381530  0.94330413  0.75486949     0.15100
H1496       H  0.39427996  0.93874046  0.78948823     0.15100
C1497       C  0.43962683  0.90167374  0.80546911     0.36800
C1498       C  0.47446586  0.97380832  0.73826776     0.36700
N1499       N  0.43029491  0.88512245  0.81885282    -0.43600
N1500       N  0.48153984  0.98588692  0.72428263    -0.43600
C1501       C  0.59192884  0.85137172  0.77394240     0.00000
C1502       C  0.63823070  0.87065163  0.76748384    -0.11900
C1503       C  0.65157852  0.84323143  0.75754816     0.02200
C1504       C  0.61824554  0.79521530  0.75399868    -0.00100
C1505       C  0.57185739  0.77654315  0.76049231    -0.11800
C1506       C  0.55869849  0.80376229  0.77032071     0.02100
H1507       H  0.66385315  0.90743401  0.77002511     0.15100
H1508       H  0.54550861  0.73979732  0.75828434     0.15100
C1509       C  0.51103151  0.78134633  0.77704142     0.36800
C1510       C  0.69940398  0.86556792  0.75108462     0.36700
N1511       N  0.47286762  0.76338532  0.78242330    -0.43600
N1512       N  0.73773670  0.88365367  0.74585502    -0.43600
C1513       C  0.74502157  0.85330300  0.61286680     0.00000
C1514       C  0.78006296  0.89934175  0.60847952    -0.11900
C1515       C  0.76759585  0.93342862  0.60424982     0.02200
C1516       C  0.71956573  0.92179890  0.60481573    -0.00100
C1517       C  0.68476602  0.87619994  0.60952613    -0.11800
C1518       C  0.69685588  0.84175025  0.61319593     0.02100
H1519       H  0.81710481  0.90869040  0.60844023     0.15100
H1520       H  0.64760541  0.86651391  0.60916800     0.15100
C1521       C  0.65882951  0.79411866  0.61635691     0.36800
C1522       C  0.80445470  0.98000787  0.59926389     0.36700
N1523       N  0.62836672  0.75597886  0.61885701    -0.43600
N1524       N  0.83394096  0.01735871  0.59526662    -0.43600
C1525       C  0.73456915  0.74437355  0.65764303     0.00000
C1526       C  0.68588441  0.72560162  0.66068741    -0.11900
C1527       C  0.66778824  0.71646872  0.67714702     0.02200
C1528       C  0.69883276  0.72573246  0.69104516    -0.00100
C1529       C  0.74717443  0.74170630  0.68778851    -0.11800
C1530       C  0.76520667  0.75135762  0.67131909     0.02100
H1531       H  0.66222900  0.72020692  0.65014005     0.15100
H1532       H  0.77160390  0.74837574  0.69818247     0.15100
C1533       C  0.81574193  0.77168360  0.66894829     0.36800
C1534       C  0.61758462  0.69896972  0.67920909     0.36700
N1535       N  0.85623454  0.78804675  0.66703747    -0.43600
N1536       N  0.57736042  0.68511013  0.68078132    -0.43600
C1537       C  0.91596845  0.53636930  0.71132941     0.00000
C1538       C  0.96427586  0.55381131  0.71432197    -0.11900
C1539       C  0.98125647  0.52378869  0.71904106     0.02200
C1540       C  0.94928290  0.47443770  0.72088507    -0.00100
C1541       C  0.90058099  0.45707788  0.71798765    -0.11800
C1542       C  0.88386357  0.48757910  0.71310120     0.02100
H1543       H  0.98902571  0.59133283  0.71279619     0.15100
H1544       H  0.87559875  0.41960862  0.71933842     0.15100
C1545       C  0.83410009  0.46795368  0.70925746     0.36800
C1546       C  0.03170455  0.54558535  0.72223285     0.36700
N1547       N  0.79427507  0.45238325  0.70606646    -0.43600
N1548       N  0.07212672  0.56328863  0.72473853    -0.43600
C1549       C  0.83128046  0.62936433  0.71746993     0.00000
C1550       C  0.79000578  0.59290991  0.72488950    -0.11900
C1551       C  0.75912902  0.60225425  0.73431152     0.02200
C1552       C  0.76908254  0.64954193  0.73665958    -0.00100
C1553       C  0.81106209  0.68618127  0.72951209    -0.11800
C1554       C  0.84189400  0.67659353  0.72000449     0.02100
H1555       H  0.78116746  0.55648293  0.72301215     0.15100
H1556       H  0.81941384  0.72256091  0.73098253     0.15100
C1557       C  0.88445879  0.71604107  0.71322175     0.36800
C1558       C  0.71715527  0.56194416  0.74107037     0.36700
N1559       N  0.91843257  0.74770227  0.70771369    -0.43600
N1560       N  0.68348904  0.52944931  0.74635435    -0.43600
C1561       C  0.83159256  0.13199204  0.88779675     0.00000
C1562       C  0.86185397  0.11294015  0.88602949    -0.11900
C1563       C  0.90815375  0.14042721  0.87969749     0.02200
C1564       C  0.92467711  0.18771344  0.87497594    -0.00100
C1565       C  0.89512812  0.20702238  0.87703078    -0.11800
C1566       C  0.84926228  0.18011848  0.88335374     0.02100
H1567       H  0.84926930  0.07643575  0.88942946     0.15100
H1568       H  0.90801320  0.24355477  0.87346489     0.15100
C1569       C  0.82211304  0.20389773  0.88530637     0.36800
C1570       C  0.93749972  0.11912389  0.87770600     0.36700
N1571       N  0.80066043  0.22323366  0.88684988    -0.43600
N1572       N  0.96105040  0.10204299  0.87614416    -0.43600
C1573       C  0.76480721  0.19012963  0.93488473     0.00000
C1574       C  0.81337201  0.21595237  0.93098701    -0.11900
C1575       C  0.84178863  0.26199884  0.93689243     0.02200
C1576       C  0.82158582  0.28311336  0.94685249    -0.00100
C1577       C  0.77310463  0.25728956  0.95096992    -0.11800
C1578       C  0.74451566  0.21089046  0.94502350     0.02100
H1579       H  0.82928662  0.19993611  0.92333256     0.15100
H1580       H  0.75799933  0.27297921  0.95917982     0.15100
C1581       C  0.69574086  0.18414087  0.95049673     0.36800
C1582       C  0.89209979  0.28601023  0.93335710     0.36700
N1583       N  0.65682700  0.16242046  0.95506649    -0.43600
N1584       N  0.93246195  0.30520303  0.93066855    -0.43600
C1585       C  0.71137129  0.92224628  0.90029753     0.00000
C1586       C  0.67875857  0.88021725  0.89204017    -0.11900
C1587       C  0.69363980  0.85158845  0.88393310     0.02200
C1588       C  0.74247762  0.86559049  0.88344028    -0.00100
C1589       C  0.77478086  0.90652770  0.89228498    -0.11800
C1590       C  0.75980118  0.93456190  0.90075016     0.02100
H1591       H  0.64137994  0.86962987  0.89190409     0.15100
H1592       H  0.81227777  0.91761450  0.89211838     0.15100
C1593       C  0.79557011  0.97689771  0.90907214     0.36800
C1594       C  0.65781723  0.80743109  0.87662736     0.36700
N1595       N  0.82442733  0.01061096  0.91579691    -0.43600
N1596       N  0.62907359  0.77201213  0.87081002    -0.43600
C1597       C  0.62465430  0.99192740  0.85796637     0.00000
C1598       C  0.58333236  0.94752601  0.85594042    -0.11900
C1599       C  0.57074883  0.92471078  0.84020576     0.02200
C1600       C  0.59963618  0.94595317  0.82595754    -0.00100
C1601       C  0.64150861  0.98950763  0.82786071    -0.11800
C1602       C  0.65439563  0.01254885  0.84364778     0.02100
H1603       H  0.56028996  0.93043713  0.86666592     0.15100
H1604       H  0.66336638  0.00631839  0.81684223     0.15100
C1605       C  0.69794114  0.05746746  0.84454451     0.36800
C1606       C  0.52740689  0.87969275  0.83886982     0.36700
N1607       N  0.73290856  0.09343161  0.84520744    -0.43600
N1608       N  0.49274138  0.84359573  0.83776641    -0.43600
C1609       C  0.42292427  0.19344269  0.94339077     0.00000
C1610       C  0.45372147  0.24241740  0.94424597    -0.11900
C1611       C  0.43815571  0.27390181  0.93956075     0.02200
C1612       C  0.39051624  0.25615432  0.93439114    -0.00100
C1613       C  0.36020991  0.20691685  0.93332507    -0.11800
C1614       C  0.37617801  0.17571278  0.93752442     0.02100
H1615       H  0.48958056  0.25600586  0.94897870     0.15100
H1616       H  0.32405357  0.19257265  0.92879778     0.15100
C1617       C  0.34408572  0.12551817  0.93565270     0.36800
C1618       C  0.47150079  0.32391714  0.94059403     0.36700
N1619       N  0.31856362  0.08532105  0.93402278    -0.43600
N1620       N  0.49881433  0.36389502  0.94137910    -0.43600
C1621       C  0.56028401  0.06642935  0.92302213     0.00000
C1622       C  0.51890647  0.03359125  0.93155060    -0.11900
C1623       C  0.49026588  0.04779729  0.94011095     0.02200
C1624       C  0.50377457  0.09623801  0.94093016    -0.00100
C1625       C  0.54480466  0.12899039  0.93221359    -0.11800
C1626       C  0.57254391  0.11464126  0.92314697     0.02100
H1627       H  0.50849099  0.99643185  0.93135487     0.15100
H1628       H  0.55566560  0.16625112  0.93263749     0.15100
C1629       C  0.61420070  0.15074447  0.91462290     0.36800
C1630       C  0.44605708  0.01159747  0.94722332     0.36700
N1631       N  0.64736573  0.18001827  0.90779854    -0.43600
N1632       N  0.41048916  0.98268589  0.95287535    -0.43600
C1633       C  0.58695220  0.77686181  0.05617796     0.00000
C1634       C  0.57667916  0.77587856  0.03895162    -0.11900
C1635       C  0.56044267  0.80521352  0.03244334     0.02200
C1636       C  0.55791492  0.83904521  0.04306812    -0.00100
C1637       C  0.56482319  0.83721627  0.06055524    -0.11800
C1638       C  0.57781095  0.80547808  0.06719711     0.02100
H1639       H  0.58142147  0.75221300  0.03057767     0.15100
H1640       H  0.56185709  0.86175216  0.06902568     0.15100
C1641       C  0.58267055  0.80392346  0.08532937     0.36800
C1642       C  0.54560711  0.79892059  0.01492838     0.36700
N1643       N  0.58622525  0.80290351  0.09988841    -0.43600
N1644       N  0.53349234  0.79340373  0.00091559    -0.43600
C1645       C  0.63481183  0.97920791  0.96400402     0.00000
C1646       C  0.64414962  0.01408043  0.97632094    -0.11900
C1647       C  0.62346967  0.00185675  0.99248835     0.02200
C1648       C  0.59290904  0.95390249  0.99659253    -0.00100
C1649       C  0.58342735  0.91928127  0.98425073    -0.11800
C1650       C  0.60405994  0.93122823  0.96821216     0.02100
H1651       H  0.66731016  0.05107589  0.97327614     0.15100
H1652       H  0.55986681  0.88233335  0.98723626     0.15100
C1653       C  0.59390734  0.89306874  0.95660368     0.36800
C1654       C  0.63519167  0.03895085  0.00472960     0.36700
N1655       N  0.58574580  0.86242620  0.94734102    -0.43600
N1656       N  0.64445041  0.06869415  0.01453406    -0.43600
C1657       C  0.89334218  0.19942087  0.38973026     0.00000
C1658       C  0.90719363  0.16536510  0.39255065    -0.11900
C1659       C  0.87929130  0.11855611  0.38681459     0.02200
C1660       C  0.83635262  0.10491361  0.37814182    -0.00100
C1661       C  0.82223331  0.13854928  0.37552453    -0.11800
C1662       C  0.85004746  0.18518553  0.38094953     0.02100
H1663       H  0.93992628  0.17518540  0.39925183     0.15100
H1664       H  0.78904021  0.12829825  0.36900026     0.15100
C1665       C  0.83249716  0.21697476  0.37704511     0.36800
C1666       C  0.89619387  0.08574483  0.38954742     0.36700
N1667       N  0.81797120  0.24197785  0.37379942    -0.43600
N1668       N  0.90966512  0.05939014  0.39177894    -0.43600
C1669       C  0.74464992  0.20467983  0.44428696     0.00000
C1670       C  0.77767714  0.23615140  0.45620123    -0.11900
C1671       C  0.82416809  0.26891901  0.45151335     0.02200
C1672       C  0.83719143  0.27346595  0.43437521    -0.00100
C1673       C  0.80332429  0.24501977  0.42224824    -0.11800
C1674       C  0.75783316  0.20983033  0.42703043     0.02100
H1675       H  0.76798429  0.23331281  0.46945941     0.15100
H1676       H  0.81374184  0.24781467  0.40908582     0.15100
C1677       C  0.72770814  0.17695097  0.41417628     0.36800
C1678       C  0.85803026  0.29472204  0.46471568     0.36700
N1679       N  0.70399857  0.15065685  0.40378798    -0.43600
N1680       N  0.88406374  0.31390885  0.47577529    -0.43600
C1681       C  0.07675768  0.60103462  0.26684035     0.00000
C1682       C  0.07690133  0.59240277  0.28414351    -0.11900
C1683       C  0.09080590  0.56062998  0.29001826     0.02200
C1684       C  0.09903204  0.53218593  0.27834809    -0.00100
C1685       C  0.10218969  0.54374138  0.26105176    -0.11800
C1686       C  0.09346992  0.57942439  0.25540070     0.02100
H1687       H  0.06664476  0.61091890  0.29308135     0.15100
H1688       H  0.11025420  0.52433580  0.25178293     0.15100
C1689       C  0.10117283  0.59268833  0.23775914     0.36800
C1690       C  0.09826297  0.55969319  0.30802817     0.36700
N1691       N  0.10809535  0.60389701  0.22368047    -0.43600
N1692       N  0.10447275  0.55906822  0.32244056    -0.43600
C1693       C  0.06299473  0.41234783  0.32243954     0.00000
C1694       C  0.09480366  0.42897659  0.33609842    -0.11900
C1695       C  0.07852662  0.42333672  0.35281298     0.02200
C1696       C  0.02914376  0.39926510  0.35620273    -0.00100
C1697       C  0.99727387  0.38100450  0.34248074    -0.11800
C1698       C  0.01373777  0.38816896  0.32571618     0.02100
H1699       H  0.13268383  0.44861760  0.33363885     0.15100
H1700       H  0.95934606  0.36234658  0.34482105     0.15100
C1701       C  0.97952184  0.37150948  0.31206364     0.36800
C1702       C  0.11363689  0.44319786  0.36612427     0.36700
N1703       N  0.95209817  0.35844653  0.30112449    -0.43600
N1704       N  0.14210791  0.45973979  0.37667121    -0.43600
C1705       C  0.27577818  0.13397891  0.38681322     0.00000
C1706       C  0.22615568  0.11440948  0.38567461    -0.11900
C1707       C  0.20630972  0.14170256  0.38017474     0.02200
C1708       C  0.23630392  0.18936950  0.37572073    -0.00100
C1709       C  0.28551430  0.20913539  0.37711428    -0.11800
C1710       C  0.30550149  0.18235286  0.38259732     0.02100
H1711       H  0.20275719  0.07767734  0.38901126     0.15100
H1712       H  0.30858610  0.24593233  0.37370949     0.15100
C1713       C  0.35664268  0.20648666  0.38408068     0.36800
C1714       C  0.15536780  0.11983674  0.37874636     0.36700
N1715       N  0.39760873  0.22612929  0.38525949    -0.43600
N1716       N  0.11451208  0.10227644  0.37762275    -0.43600
C1717       C  0.10390840  0.32013065  0.39916371     0.00000
C1718       C  0.14407236  0.35175648  0.38977545    -0.11900
C1719       C  0.17100824  0.33643405  0.38071096     0.02200
C1720       C  0.15716483  0.28786724  0.38035195    -0.00100
C1721       C  0.11818672  0.25651722  0.39035484    -0.11800
C1722       C  0.09213341  0.27218151  0.39986899     0.02100
H1723       H  0.15466183  0.38891302  0.38952957     0.15100
H1724       H  0.10732073  0.21925442  0.39050735     0.15100
C1725       C  0.05281336  0.23782854  0.40982650     0.36800
C1726       C  0.21363360  0.37181171  0.37244874     0.36700
N1727       N  0.02173549  0.21019409  0.41795271    -0.43600
N1728       N  0.24780891  0.40027918  0.36586808    -0.43600
C1729       C  0.43585549  0.51754488  0.26617810     0.00000
C1730       C  0.48217294  0.54287366  0.25968395    -0.11900
C1731       C  0.51283829  0.58988656  0.26435294     0.02200
C1732       C  0.49773104  0.61206398  0.27610046    -0.00100
C1733       C  0.45104300  0.58711561  0.28238035    -0.11800
C1734       C  0.41976409  0.54032999  0.27726615     0.02100
H1735       H  0.49444029  0.52579479  0.25086795     0.15100
H1736       H  0.43939629  0.60396197  0.29152454     0.15100
C1737       C  0.37230343  0.51575909  0.28410352     0.36800
C1738       C  0.56018769  0.61413439  0.25737688     0.36700
N1739       N  0.33422466  0.49598760  0.28956736    -0.43600
N1740       N  0.59805762  0.63366028  0.25173202    -0.43600
C1741       C  0.59172321  0.51353683  0.20895812     0.00000
C1742       C  0.55849063  0.52876025  0.20779681    -0.11900
C1743       C  0.51187628  0.50046565  0.21314531     0.02200
C1744       C  0.49734908  0.45554540  0.22049455    -0.00100
C1745       C  0.53101470  0.44046712  0.22188351    -0.11800
C1746       C  0.57783532  0.46893110  0.21610427     0.02100
H1747       H  0.56905162  0.56324067  0.20243466     0.15100
H1748       H  0.52086998  0.40642722  0.22749852     0.15100
C1749       C  0.61040466  0.45110016  0.21716379     0.36800
C1750       C  0.48050165  0.51947852  0.21080962     0.36700
N1751       N  0.63661616  0.43690863  0.21800261    -0.43600
N1752       N  0.45562887  0.53494459  0.20886448    -0.43600
C1753       C  0.16580766  0.42050110  0.27293020     0.00000
C1754       C  0.20901103  0.45411760  0.26553372    -0.11900
C1755       C  0.23814389  0.44064824  0.25688616     0.02200
C1756       C  0.22541714  0.39238774  0.25593405    -0.00100
C1757       C  0.18224759  0.35867653  0.26323169    -0.11800
C1758       C  0.15209880  0.37200450  0.27125701     0.02100
H1759       H  0.22069019  0.49143772  0.26669147     0.15100
H1760       H  0.17151973  0.32148873  0.26240157     0.15100
C1761       C  0.10639734  0.33476947  0.27692596     0.36800
C1762       C  0.28160496  0.47764851  0.24960257     0.36700
N1763       N  0.06976731  0.30478045  0.28141242    -0.43600
N1764       N  0.31614670  0.50768991  0.24373933    -0.43600
C1765       C  0.29167197  0.30756584  0.29552775     0.00000
C1766       C  0.31631953  0.33166990  0.31026625    -0.11900
C1767       C  0.29356555  0.32155884  0.32604965     0.02200
C1768       C  0.24511738  0.28705283  0.32736085    -0.00100
C1769       C  0.21985430  0.26421879  0.31268688    -0.11800
C1770       C  0.24234034  0.27434233  0.29685511     0.02100
H1771       H  0.35376101  0.35782530  0.30956009     0.15100
H1772       H  0.18271690  0.23727253  0.31369135     0.15100
C1773       C  0.21339125  0.25032283  0.28226345     0.36800
C1774       C  0.32089530  0.34583626  0.34091068     0.36700
N1775       N  0.19003014  0.23115016  0.27059211    -0.43600
N1776       N  0.34251482  0.36513532  0.35288429    -0.43600
C1777       C  0.16293624  0.76072141  0.04317949     0.00000
C1778       C  0.14337959  0.78935952  0.04656904    -0.11900
C1779       C  0.17203886  0.83635679  0.05142849     0.02200
C1780       C  0.22201160  0.85583931  0.05291404    -0.00100
C1781       C  0.24139713  0.82650036  0.04978438    -0.11800
C1782       C  0.21224629  0.77925791  0.04481515     0.02100
H1783       H  0.10537676  0.77494203  0.04514248     0.15100
H1784       H  0.27934698  0.84057673  0.05103096     0.15100
C1785       C  0.23363102  0.75082718  0.04096437     0.36800
C1786       C  0.14828365  0.86275928  0.05513085     0.36700
N1787       N  0.25071251  0.72800140  0.03782346    -0.43600
N1788       N  0.12882145  0.88350405  0.05802542    -0.43600
C1789       C  0.06995762  0.84926202  0.10931746     0.00000
C1790       C  0.08380154  0.89697830  0.10678792    -0.11900
C1791       C  0.13011583  0.92958049  0.10149469     0.02200
C1792       C  0.16338176  0.91429303  0.09875963    -0.00100
C1793       C  0.14867513  0.86613777  0.10112513    -0.11800
C1794       C  0.10265213  0.83383517  0.10623673     0.02100
H1795       H  0.05875054  0.90895454  0.10937214     0.15100
H1796       H  0.17291596  0.85310904  0.09862026     0.15100
C1797       C  0.08955376  0.78474127  0.10808702     0.36800
C1798       C  0.14260634  0.97836243  0.09940264     0.36700
N1799       N  0.07897248  0.74541685  0.10956288    -0.43600
N1800       N  0.15247822  0.01743845  0.09772168    -0.43600
C1801       C  0.49267808  0.95132940  0.04591902     0.00000
C1802       C  0.45856789  0.95577033  0.03639976    -0.11900
C1803       C  0.42949446  0.97109183  0.04387996     0.02200
C1804       C  0.43389604  0.98226186  0.06132289    -0.00100
C1805       C  0.46799087  0.97799939  0.07090352    -0.11800
C1806       C  0.49772947  0.96339161  0.06333417     0.02100
H1807       H  0.45387944  0.94624317  0.02308802     0.15100
H1808       H  0.47198294  0.98693607  0.08426296     0.15100
C1809       C  0.53454650  0.96317345  0.07352485     0.36800
C1810       C  0.39346160  0.97223877  0.03352167     0.36700
N1811       N  0.56426504  0.96324039  0.08164191    -0.43600
N1812       N  0.36439252  0.97235645  0.02508577    -0.43600
C1813       C  0.40831597  0.09332351  0.99186780     0.00000
C1814       C  0.43441802  0.11587238  0.00641849    -0.11900
C1815       C  0.41298215  0.10497460  0.02239661     0.02200
C1816       C  0.36406258  0.07073672  0.02399345    -0.00100
C1817       C  0.33833866  0.04761146  0.00930413    -0.11800
C1818       C  0.35998649  0.05876995  0.99335218     0.02100
H1819       H  0.47141832  0.14304922  0.00521860     0.15100
H1820       H  0.30110039  0.02097540  0.01023614     0.15100
C1821       C  0.33185602  0.03495558  0.97858210     0.36800
C1822       C  0.44253587  0.12937981  0.03683015     0.36700
N1823       N  0.30949304  0.01595190  0.96670506    -0.43600
N1824       N  0.46625244  0.14900376  0.04837945    -0.43600
C1825       C  0.56698349  0.08104758  0.21745408     0.00000
C1826       C  0.57919960  0.12860769  0.21937151    -0.11900
C1827       C  0.54872221  0.14463973  0.21364257     0.02200
C1828       C  0.50438849  0.11235401  0.20632633    -0.00100
C1829       C  0.49235570  0.06473138  0.20459541    -0.11800
C1830       C  0.52314162  0.04905061  0.20992010     0.02100
H1831       H  0.61258042  0.15321301  0.22541063     0.15100
H1832       H  0.45819178  0.03928609  0.19925897     0.15100
C1833       C  0.50740845  0.99922481  0.20854006     0.36800
C1834       C  0.56437713  0.19439614  0.21500551     0.36700
N1835       N  0.49474381  0.95929460  0.20750196    -0.43600
N1836       N  0.57692969  0.23429519  0.21609458    -0.43600
C1837       C  0.39480103  0.09785065  0.16044586     0.00000
C1838       C  0.41289099  0.12596660  0.14597622    -0.11900
C1839       C  0.40270514  0.10565978  0.12975551     0.02200
C1840       C  0.37394703  0.05593534  0.12780729    -0.00100
C1841       C  0.35406743  0.02821738  0.14235561    -0.11800
C1842       C  0.36447031  0.04866555  0.15854464     0.02100
H1843       H  0.43656357  0.16373917  0.14739860     0.15100
H1844       H  0.33115552  0.99028148  0.14113142     0.15100
C1845       C  0.34462670  0.01838577  0.17311703     0.36800
C1846       C  0.42191160  0.13703279  0.11541980     0.36700
N1847       N  0.32871667  0.99418664  0.18481214    -0.43600
N1848       N  0.43727435  0.16231664  0.10396623    -0.43600
C1849       C  0.40642121  0.19354654  0.21260409     0.00000
C1850       C  0.40641407  0.23175760  0.20442723    -0.11900
C1851       C  0.39250141  0.26065149  0.21289923     0.02200
C1852       C  0.37760622  0.25158930  0.22996451    -0.00100
C1853       C  0.37860714  0.21421854  0.23837144    -0.11800
C1854       C  0.39255455  0.18511965  0.22986052     0.02100
H1855       H  0.41794597  0.23949306  0.19135974     0.15100
H1856       H  0.36719481  0.20690791  0.25145681     0.15100
C1857       C  0.39020234  0.14562976  0.23892824     0.36800
C1858       C  0.39590755  0.30083418  0.20397344     0.36700
N1859       N  0.38843215  0.11402143  0.24620152    -0.43600
N1860       N  0.39939576  0.33331355  0.19680137    -0.43600
C1861       C  0.09983780  0.29899263  0.10072888     0.00000
C1862       C  0.08573961  0.25098521  0.09822854    -0.11900
C1863       C  0.11440852  0.23243415  0.10355893     0.02200
C1864       C  0.15806783  0.26204169  0.11180789    -0.00100
C1865       C  0.17264712  0.31010430  0.11383180    -0.11800
C1866       C  0.14442970  0.32872681  0.10853385     0.02100
H1867       H  0.05231237  0.22774472  0.09194796     0.15100
H1868       H  0.20675798  0.33361462  0.11966548     0.15100
C1869       C  0.16324068  0.37875901  0.11124897     0.36800
C1870       C  0.09775707  0.18300344  0.10048932     0.36700
N1871       N  0.17871442  0.41888296  0.11342357    -0.43600
N1872       N  0.08439882  0.14348801  0.09774656    -0.43600
C1873       C  0.25239995  0.17716943  0.10727856     0.00000
C1874       C  0.25380888  0.14011624  0.11581202    -0.11900
C1875       C  0.26913660  0.11204265  0.10767060     0.02200
C1876       C  0.28340289  0.12055110  0.09056957    -0.00100
C1877       C  0.28089002  0.15654068  0.08180067    -0.11800
C1878       C  0.26607407  0.18515968  0.09000591     0.02100
H1879       H  0.24243758  0.13274071  0.12890466     0.15100
H1880       H  0.29175926  0.16312297  0.06864371     0.15100
C1881       C  0.26739698  0.22365345  0.08056712     0.36800
C1882       C  0.26771678  0.07321492  0.11693467     0.36700
N1883       N  0.26831535  0.25437312  0.07294823    -0.43600
N1884       N  0.26588501  0.04182178  0.12437223    -0.43600
C1885       C  0.28907501  0.31810788  0.19095833     0.00000
C1886       C  0.25703930  0.26908415  0.18982558    -0.11900
C1887       C  0.24388383  0.24590382  0.17413344     0.02200
C1888       C  0.26216955  0.27181940  0.15911832    -0.00100
C1889       C  0.29546819  0.32025138  0.16013215    -0.11800
C1890       C  0.30966809  0.34339405  0.17583664     0.02100
H1891       H  0.24202540  0.24862009  0.20125496     0.15100
H1892       H  0.30949173  0.34029547  0.14854938     0.15100
C1893       C  0.34446701  0.39317058  0.17589606     0.36800
C1894       C  0.21060195  0.19573006  0.17367884     0.36700
N1895       N  0.37266877  0.43298370  0.17588566    -0.43600
N1896       N  0.18414406  0.15546473  0.17328092    -0.43600
C1897       C  0.09108450  0.86114626  0.60013324     0.00000
C1898       C  0.08749426  0.86903171  0.61731630    -0.11900
C1899       C  0.11318430  0.91470740  0.62410195     0.02200
C1900       C  0.14634902  0.95262911  0.61386977    -0.00100
C1901       C  0.14730126  0.94474370  0.59641660    -0.11800
C1902       C  0.11862308  0.89986748  0.58944135     0.02100
H1903       H  0.06441798  0.83960196  0.62539598     0.15100
H1904       H  0.17139994  0.97318469  0.58819139     0.15100
C1905       C  0.11834236  0.89449383  0.57128282     0.36800
C1906       C  0.10361817  0.92179713  0.64139177     0.36700
N1907       N  0.11799262  0.89063859  0.55670597    -0.43600
N1908       N  0.09576229  0.92754298  0.65520771    -0.43600
C1909       C  0.16343618  0.79917904  0.55588534     0.00000
C1910       C  0.18963100  0.84455372  0.56290254    -0.11900
C1911       C  0.23577174  0.87582451  0.55753816     0.02200
C1912       C  0.25682087  0.86137277  0.54510930    -0.00100
C1913       C  0.23144926  0.81509960  0.53858704    -0.11800
C1914       C  0.18506490  0.78368616  0.54405558     0.02100
H1915       H  0.17390449  0.85559912  0.57266445     0.15100
H1916       H  0.24756544  0.80396532  0.52895860     0.15100
C1917       C  0.15995266  0.73655438  0.53704578     0.36800
C1918       C  0.25968634  0.92328037  0.56430701     0.36700
N1919       N  0.13984111  0.69875314  0.53143184    -0.43600
N1920       N  0.27842686  0.96132059  0.56971890    -0.43600
C1921       C  0.83271446  0.76218468  0.60613011     0.00000
C1922       C  0.87077136  0.76398992  0.61519208    -0.11900
C1923       C  0.90120613  0.75060582  0.60771731     0.02200
C1924       C  0.89408518  0.73487965  0.59074164    -0.00100
C1925       C  0.85734479  0.73484306  0.58135405    -0.11800
C1926       C  0.82647722  0.74803182  0.58892416     0.02100
H1927       H  0.87671433  0.77587755  0.62826379     0.15100
H1928       H  0.85177806  0.72299353  0.56828834     0.15100
C1929       C  0.78739274  0.74436532  0.57903560     0.36800
C1930       C  0.94057970  0.75505108  0.61764507     0.36700
N1931       N  0.75606817  0.74144074  0.57109540    -0.43600
N1932       N  0.97223965  0.75937156  0.62571664    -0.43600
C1933       C  0.97012883  0.66010383  0.63274708     0.00000
C1934       C  0.92201312  0.62528055  0.63454867    -0.11900
C1935       C  0.89963370  0.61534658  0.65034555     0.02200
C1936       C  0.92531201  0.64028861  0.66479329    -0.00100
C1937       C  0.97269935  0.67621553  0.66305985    -0.11800
C1938       C  0.99519226  0.68665206  0.64723846     0.02100
H1939       H  0.90167661  0.60538109  0.62359231     0.15100
H1940       H  0.99275600  0.69482975  0.67425492     0.15100
C1941       C  0.04424262  0.72382513  0.64649901     0.36800
C1942       C  0.85077699  0.57801795  0.65160210     0.36700
N1943       N  0.08347173  0.75382068  0.64596730    -0.43600
N1944       N  0.81161062  0.54815485  0.65265592    -0.43600
C1945       C  0.82510718  0.59383636  0.44690354     0.00000
C1946       C  0.77625586  0.56266306  0.44482642    -0.11900
C1947       C  0.74641808  0.57892960  0.43862241     0.02200
C1948       C  0.76577517  0.62725820  0.43448190    -0.00100
C1949       C  0.81497554  0.65790981  0.43641697    -0.11800
C1950       C  0.84448445  0.64168755  0.44253001     0.02100
H1951       H  0.76133742  0.52588057  0.44840502     0.15100
H1952       H  0.83084344  0.69487773  0.43294591     0.15100
C1953       C  0.89471087  0.67486464  0.44425393     0.36800
C1954       C  0.69621939  0.54571673  0.43720653     0.36700
N1955       N  0.93493195  0.70134487  0.44565670    -0.43600
N1956       N  0.65600133  0.51891745  0.43609754    -0.43600
C1957       C  0.92011123  0.60007503  0.49642347     0.00000
C1958       C  0.96633845  0.63837228  0.49812854    -0.11900
C1959       C  0.98185307  0.66342172  0.51341372     0.02200
C1960       C  0.95060493  0.64991581  0.52746903    -0.00100
C1961       C  0.90483879  0.61024289  0.52579440    -0.11800
C1962       C  0.88944803  0.58558795  0.51047364     0.02100
H1963       H  0.98979696  0.64988623  0.48725053     0.15100
H1964       H  0.88050891  0.59867330  0.53640996     0.15100
C1965       C  0.84185465  0.54564362  0.50940118     0.36800
C1966       C  0.02979582  0.70292213  0.51407468     0.36700
N1967       N  0.80373782  0.51359764  0.50854292    -0.43600
N1968       N  0.06817736  0.73464875  0.51452810    -0.43600
C1969       C  0.96051300  0.47014365  0.42226249     0.00000
C1970       C  0.99198531  0.50861412  0.43242855    -0.11900
C1971       C  0.97603186  0.53343860  0.44242613     0.02200
C1972       C  0.92718444  0.51938446  0.44269363    -0.00100
C1973       C  0.89584703  0.48111265  0.43246007    -0.11800
C1974       C  0.91184022  0.45683113  0.42225478     0.02100
H1975       H  0.02938778  0.51931382  0.43264681     0.15100
H1976       H  0.85821882  0.46946112  0.43262975     0.15100
C1977       C  0.87669718  0.41714205  0.41257249     0.36800
C1978       C  0.01096589  0.57383491  0.45187563     0.36700
N1979       N  0.84810755  0.38542561  0.40488912    -0.43600
N1980       N  0.03908833  0.60605118  0.45948557    -0.43600
C1981       C  0.24417288  0.43636556  0.55397537     0.00000
C1982       C  0.22097508  0.45028586  0.56562177    -0.11900
C1983       C  0.18833478  0.46381325  0.56025906     0.02200
C1984       C  0.18140209  0.46759372  0.54269442    -0.00100
C1985       C  0.20790105  0.45677200  0.53117488    -0.11800
C1986       C  0.23660457  0.43869167  0.53660080     0.02100
H1987       H  0.22566327  0.44706614  0.57907720     0.15100
H1988       H  0.20495521  0.46048413  0.51768893     0.15100
C1989       C  0.25545045  0.42042428  0.52404340     0.36800
C1990       C  0.16028255  0.46954396  0.57317985     0.36700
N1991       N  0.26903238  0.40500751  0.51369836    -0.43600
N1992       N  0.13809223  0.47410965  0.58367836    -0.43600
C1993       C  0.08292430  0.54832123  0.54666032     0.00000
C1994       C  0.03409357  0.52708972  0.55006001    -0.11900
C1995       C  0.01592641  0.54963008  0.56027016     0.02200
C1996       C  0.04675222  0.59470412  0.56731451    -0.00100
C1997       C  0.09572876  0.61546447  0.56424092    -0.11800
C1998       C  0.11388983  0.59294953  0.55399251     0.02100
H1999       H  0.01005394  0.49232507  0.54490757     0.15100
H2000       H  0.11978084  0.65043157  0.56923100     0.15100
C2001       C  0.16418877  0.61750745  0.55052630     0.36800
C2002       C  0.96560702  0.52507146  0.56372836     0.36700
N2003       N  0.20450630  0.63722840  0.54773777    -0.43600
N2004       N  0.92532825  0.50528499  0.56659397    -0.43600
C2005       C  0.08196672  0.45868741  0.49356445     0.00000
C2006       C  0.03515590  0.44136770  0.48785575    -0.11900
C2007       C  0.02091187  0.42047342  0.47172797     0.02200
C2008       C  0.05269967  0.41361540  0.46152567    -0.00100
C2009       C  0.10025816  0.43461494  0.46654701    -0.11800
C2010       C  0.11534608  0.45820601  0.48208644     0.02100
H2011       H  0.00966846  0.44396027  0.49595361     0.15100
H2012       H  0.12584110  0.43265801  0.45828205     0.15100
C2013       C  0.16574251  0.48325785  0.48557109     0.36800
C2014       C  0.97563328  0.41121971  0.46513201     0.36700
N2015       N  0.20621236  0.50365507  0.48814867    -0.43600
N2016       N  0.94027131  0.40563120  0.45952491    -0.43600
loop_ 
_geom_bond_atom_site_label_1 
_geom_bond_atom_site_label_2 
_geom_bond_distance 
_geom_bond_site_symmetry_2 
_ccdc_geom_bond_type 
C1            C2   1.415       .  A
C1            C6   1.409       .  A
C1         C1993   1.497       .  S
C2            C3   1.411       .  A
C2            H7   1.083       .  S
C3            C4   1.400       .  A
C3         C2005   1.500       .  S
C4            C5   1.404       .  A
C4            H8   1.082       .  S
C5            C6   1.409       .  A
C5         C1984   1.507       .  S
C6            H9   1.079       .  S
C10          C11   1.413       .  A
C10          C15   1.410       .  A
C10        C1972   1.496       .  S
C11          C12   1.405       .  A
C11          H16   1.082       .  S
C12          C13   1.396       .  A
C12        C1957   1.478       .  S
C13          C14   1.394       .  A
C13          H17   1.085       .  S
C14          C15   1.400       .  A
C14        C1945   1.473       .  S
C15          H18   1.084       .  S
O19         Cr37   2.004       .  S
O19          C27   1.266       .  A
O20         Cr37   1.972       .  S
O20          C21   1.261   1_655  A
C21        C1996   1.493       .  S
C21          O22   1.274       .  A
O22         Cr38   2.028       .  S
O23         Cr38   1.971       .  S
O23          C24   1.255       .  A
C24        C1909   1.469       .  S
C24          O25   1.266       .  A
O25         Cr39   2.011       .  S
O26         Cr39   1.976       .  S
O26          C27   1.259   1_455  A
C27        C1960   1.490       .  S
O28         Cr37   1.975       .  S
O28          C36   1.261       .  A
O29         Cr37   2.001       .  S
O29          C30   1.263       .  A
C30        C1933   1.491       .  S
C30          O31   1.256   1_655  A
O31         Cr38   1.979       .  S
O32         Cr38   2.020       .  S
O32          C33   1.270       .  A
C33        C1897   1.467       .  S
C33          O34   1.258       .  A
O34         Cr39   1.965       .  S
O35         Cr39   2.026   1_655  S
O35          C36   1.270       .  A
C36        C1924   1.481       .  S
Cr37         O40   1.770   1_655  S
Cr38         O40   1.765       .  S
Cr39         O40   1.768       .  S
C41          C42   1.412       .  A
C41          C46   1.413       .  A
C41        C1873   1.495       .  S
C42          C43   1.407       .  A
C42          H47   1.081       .  S
C43          C44   1.403       .  A
C43        C1864   1.491       .  S
C44          C45   1.394       .  A
C44          H48   1.085       .  S
C45          C46   1.402       .  A
C45        C1888   1.480       .  S
C46          H49   1.084       .  S
C50          C51   1.414       .  A
C50          C55   1.415       .  A
C50        C1849   1.502       .  S
C51          C52   1.411       .  A
C51          H56   1.082       .  S
C52          C53   1.399       .  A
C52        C1828   1.492       .  S
C53          C54   1.394       .  A
C53          H57   1.085       .  S
C54          C55   1.406       .  A
C54        C1837   1.481       .  S
C55          H58   1.083       .  S
O59         Cr77   1.984       .  S
O59          C67   1.264   1_545  A
O60         Cr77   1.994       .  S
O60          C61   1.259       .  A
C61        C1816   1.489       .  S
C61          O62   1.260       .  A
O62         Cr78   1.990       .  S
O63         Cr78   1.986   1_565  S
O63          C64   1.263       .  A
C64        C1780   1.484       .  S
C64          O65   1.264       .  A
O65         Cr79   1.983       .  S
O66         Cr79   2.028       .  S
O66          C67   1.272       .  A
C67        C1804   1.486       .  S
O68         Cr77   1.996       .  S
O68          C76   1.260       .  A
O69         Cr77   1.977       .  S
O69          C70   1.261       .  A
C70        C1876   1.478       .  S
C70          O71   1.269       .  A
O71         Cr78   2.020       .  S
O72         Cr78   1.984   1_565  S
O72          C73   1.263       .  A
C73        C1792   1.487       .  S
C73          O74   1.266       .  A
O74         Cr79   1.993       .  S
O75         Cr79   1.990       .  S
O75          C76   1.259   1_565  A
C76        C1840   1.490       .  S
Cr77         O80   1.769       .  S
Cr78         O80   1.770       .  S
Cr79         O80   1.769   1_565  S
O81         Cr99   1.998       .  S
O81          C89   1.262       .  A
O82         Cr99   1.982       .  S
O82          C83   1.262       .  A
C83        C1852   1.490       .  S
C83          O84   1.272       .  A
O84        Cr100   2.032       .  S
O85        Cr100   1.988       .  S
O85          C86   1.265       .  A
C86        C1744   1.491       .  S
C86          O87   1.263       .  A
O87        Cr101   1.987       .  S
O88        Cr101   1.989       .  S
O88          C89   1.259       .  A
C89        C1885   1.493       .  S
O90         Cr99   1.990       .  S
O90          C98   1.265       .  A
O91         Cr99   1.997       .  S
O91          C92   1.262       .  A
C92        C1765   1.496       .  S
C92          O93   1.262       .  A
O93        Cr100   1.996       .  S
O94        Cr100   2.008       .  S
O94          C95   1.266       .  A
C95        C1729   1.476       .  S
C95          O96   1.260       .  A
O96        Cr101   1.982       .  S
O97        Cr101   2.016       .  S
O97          C98   1.270       .  A
C98        C1756   1.497       .  S
Cr99        O102   1.772       .  S
Cr100       O102   1.775       .  S
Cr101       O102   1.763       .  S
C103        C104   1.418       .  A
C103        C108   1.413       .  A
C103       C1720   1.502       .  S
C104        C105   1.407       .  A
C104        H109   1.082       .  S
C105        C106   1.392       .  A
C105       C1768   1.481       .  S
C106        C107   1.395       .  A
C106        H110   1.085       .  S
C107        C108   1.403       .  A
C107       C1708   1.476       .  S
C108        H111   1.083       .  S
C112        C113   1.413       .  A
C112        C117   1.418       .  A
C112       C1753   1.509       .  S
C113        C114   1.404       .  A
C113        H118   1.083       .  S
C114        C115   1.394       .  A
C114       C1693   1.483       .  S
C115        C116   1.402       .  A
C115        H119   1.082       .  S
C116        C117   1.415       .  A
C116       C1684   1.505       .  S
C117        H120   1.081       .  S
O121       Cr139   1.976       .  S
O121        C129   1.260   1_455  A
O122       Cr139   2.002       .  S
O122        C123   1.262       .  A
C123       C2008   1.486       .  S
C123        O124   1.259   1_455  A
O124       Cr140   1.994       .  S
O125       Cr140   2.004       .  S
O125        C126   1.264       .  A
C126       C1672   1.467       .  S
C126        O127   1.257       .  A
O127       Cr141   1.973       .  S
O128       Cr141   2.011       .  S
O128        C129   1.268       .  A
C129       C1969   1.491       .  S
O130       Cr139   2.007       .  S
O130        C138   1.265       .  A
O131       Cr139   1.970       .  S
O131        C132   1.262       .  A
C132       C1717   1.495       .  S
C132        O133   1.274       .  A
O133       Cr140   2.031   1_455  S
O134       Cr140   1.989       .  S
O134        C135   1.265       .  A
C135       C1657   1.494       .  S
C135        O136   1.264       .  A
O136       Cr141   1.994       .  S
O137       Cr141   1.983       .  S
O137        C138   1.259   1_655  A
C138       C1696   1.490       .  S
Cr139       O142   1.777   1_455  S
Cr140       O142   1.769       .  S
Cr141       O142   1.767       .  S
C143        C144   1.411       .  A
C143        C148   1.413       .  A
C143       C1801   1.497       .  S
C144        C145   1.406       .  A
C144        H149   1.083       .  S
C145        C146   1.399       .  A
C145       C1648   1.489   1_554  S
C146        C147   1.400       .  A
C146        H150   1.083       .  S
C147        C148   1.410       .  A
C147       C1636   1.496       .  S
C148        H151   1.083       .  S
C152        C153   1.412       .  A
C152        C157   1.414       .  A
C152       C1624   1.498       .  S
C153        C154   1.402       .  A
C153        H158   1.083       .  S
C154        C155   1.393       .  A
C154       C1609   1.472       .  S
C155        C156   1.392       .  A
C155        H159   1.085       .  S
C156        C157   1.404       .  A
C156       C1813   1.475       .  S
C157        H160   1.083       .  S
O161       Cr179   1.998       .  S
O161        C169   1.263       .  A
O162       Cr179   1.987   1_545  S
O162        C163   1.263       .  A
C163       C1621   1.493       .  S
C163        O164   1.267       .  A
O164       Cr180   2.011       .  S
O165       Cr180   1.983       .  S
O165        C166   1.261       .  A
C166       C1573   1.470       .  S
C166        O167   1.263       .  A
O167       Cr181   1.993       .  S
O168       Cr181   1.987       .  S
O168        C169   1.260   1_545  A
C169       C1645   1.488       .  S
O170       Cr179   1.983       .  S
O170        C178   1.264       .  A
O171       Cr179   2.005       .  S
O171        C172   1.265   1_565  A
C172       C1597   1.498   1_545  S
C172        O173   1.259       .  A
O173       Cr180   1.985       .  S
O174       Cr180   1.991       .  S
O174        C175   1.263       .  A
C175       C1561   1.489       .  S
C175        O176   1.264       .  A
O176       Cr181   1.986       .  S
O177       Cr181   2.012   1_565  S
O177        C178   1.268       .  A
C178       C1585   1.491       .  S
Cr179       O182   1.771   1_565  S
Cr180       O182   1.766       .  S
Cr181       O182   1.770       .  S
C183        C184   1.413       .  A
C183        C188   1.414       .  A
C183       C1549   1.498       .  S
C184        C185   1.403       .  A
C184        H189   1.084       .  S
C185        C186   1.393       .  A
C185       C1537   1.478       .  S
C186        C187   1.394       .  A
C186        H190   1.085       .  S
C187        C188   1.406       .  A
C187       C1936   1.476       .  S
C188        H191   1.083       .  S
C192        C193   1.412       .  A
C192        C197   1.411       .  A
C192       C1921   1.492       .  S
C193        C194   1.408       .  A
C193        H198   1.083       .  S
C194        C195   1.393       .  A
C194       C1513   1.480       .  S
C195        C196   1.391       .  A
C195        H199   1.085       .  S
C196        C197   1.401       .  A
C196       C1525   1.477       .  S
C197        H200   1.084       .  S
C201        C202   1.411       .  A
C201        C206   1.407       .  A
C201       C1501   1.492       .  S
C202        C203   1.409       .  A
C202        H207   1.083       .  S
C203        C204   1.398       .  A
C203       C1600   1.481       .  S
C204        C205   1.398       .  A
C204        H208   1.084       .  S
C205        C206   1.406       .  A
C205       C1489   1.488       .  S
C206        H209   1.084       .  S
C210        C211   1.411       .  A
C210        C215   1.414       .  A
C210       C1588   1.495       .  S
C211        C212   1.400       .  A
C211        H216   1.083       .  S
C212        C213   1.391       .  A
C212       C1480   1.472       .  S
C213        C214   1.395       .  A
C213        H217   1.085       .  S
C214        C215   1.407       .  A
C214       C1465   1.479       .  S
C215        H218   1.083       .  S
O219       Cr237   2.029       .  S
O219        C227   1.272       .  A
O220       Cr237   1.959       .  S
O220        C221   1.253       .  A
C221       C1477   1.484       .  S
C221        O222   1.264       .  A
O222       Cr238   2.008       .  S
O223       Cr238   1.987       .  S
O223        C224   1.267       .  A
C224       C1453   1.469       .  S
C224        O225   1.262       .  A
O225       Cr239   1.988       .  S
O226       Cr239   1.959       .  S
O226        C227   1.258       .  A
C227       C1504   1.503       .  S
O228       Cr237   1.960       .  S
O228        C236   1.252       .  A
O229       Cr237   2.027       .  S
O229        C230   1.272       .  A
C230       C1552   1.502       .  S
C230        O231   1.258       .  A
O231       Cr238   1.964       .  S
O232       Cr238   1.982       .  S
O232        C233   1.262       .  A
C233       C1441   1.471       .  S
C233        O234   1.264       .  A
O234       Cr239   1.990       .  S
O235       Cr239   2.001       .  S
O235        C236   1.262       .  A
C236       C1528   1.487       .  S
Cr237       O240   1.775       .  S
Cr238       O240   1.770       .  S
Cr239       O240   1.773       .  S
C241        C242   1.413       .  A
C241        C246   1.417       .  A
C241       C1417   1.501       .  S
C242        C243   1.398       .  A
C242        H247   1.083       .  S
C243        C244   1.388       .  A
C243       C1432   1.469       .  S
C244        C245   1.395       .  A
C244        H248   1.085       .  S
C245        C246   1.411       .  A
C245       C1456   1.489       .  S
C246        H249   1.082       .  S
C250        C251   1.412       .  A
C250        C255   1.409       .  A
C250       C1405   1.492       .  S
C251        C252   1.408       .  A
C251        H256   1.083       .  S
C252        C253   1.398   1_455  A
C252       C1393   1.488       .  S
C253        C254   1.397       .  A
C253        H257   1.085       .  S
C254        C255   1.401   1_655  A
C254       C1564   1.477       .  S
C255        H258   1.083       .  S
O259       Cr277   1.973   1_655  S
O259        C267   1.261       .  A
O260       Cr277   2.004       .  S
O260        C261   1.264       .  A
C261       C1384   1.486       .  S
C261        O262   1.257       .  A
O262       Cr278   1.977       .  S
O263       Cr278   1.989       .  S
O263        C264   1.264   1_455  A
C264       C1540   1.490       .  S
C264        O265   1.266       .  A
O265       Cr279   1.990       .  S
O266       Cr279   2.020       .  S
O266        C267   1.269       .  A
C267       C1372   1.476       .  S
O268       Cr277   2.002   1_655  S
O268        C276   1.262       .  A
O269       Cr277   1.977       .  S
O269        C270   1.261       .  A
C270       C1420   1.481       .  S
C270        O271   1.268       .  A
O271       Cr278   2.018       .  S
O272       Cr278   1.984       .  S
O272        C273   1.263       .  A
C273       C1357   1.485       .  S
C273        O274   1.262       .  A
O274       Cr279   1.984   1_455  S
O275       Cr279   1.984       .  S
O275        C276   1.259       .  A
C276       C1396   1.489       .  S
Cr277       O280   1.771       .  S
Cr278       O280   1.770       .  S
Cr279       O280   1.768   1_655  S
O281       Cr299   1.993       .  S
O281        C289   1.261       .  A
O282       Cr299   1.972       .  S
O282        C283   1.260       .  A
C283       C1408   1.479       .  S
C283        O284   1.273       .  A
O284       Cr300   2.030       .  S
O285       Cr300   1.986       .  S
O285        C286   1.262       .  A
C286       C1321   1.485       .  S
C286        O287   1.267       .  A
O287       Cr301   2.002       .  S
O288       Cr301   1.977       .  S
O288        C289   1.258       .  A
C289       C1429   1.479       .  S
O290       Cr299   1.979       .  S
O290        C298   1.262       .  A
O291       Cr299   1.995       .  S
O291        C292   1.260       .  A
C292       C1345   1.493       .  S
C292        O293   1.261       .  A
O293       Cr300   1.994       .  S
O294       Cr300   2.008       .  S
O294        C295   1.269       .  A
C295       C1612   1.481       .  S
C295        O296   1.260       .  A
O296       Cr301   1.973       .  S
O297       Cr301   2.022       .  S
O297        C298   1.270       .  A
C298       C1333   1.478       .  S
Cr299       O302   1.769       .  S
Cr300       O302   1.765       .  S
Cr301       O302   1.766       .  S
C303        C304   1.414       .  A
C303        C308   1.409       .  A
C303       C1309   1.498       .  S
C304        C305   1.409       .  A
C304        H309   1.083       .  S
C305        C306   1.400       .  A
C305       C1348   1.486   1_554  S
C306        C307   1.396       .  A
C306        H310   1.085       .  S
C307        C308   1.402       .  A
C307       C1297   1.477       .  S
C308        H311   1.083       .  S
C312        C313   1.408       .  A
C312        C317   1.411       .  A
C312       C1336   1.493       .  S
C313        C314   1.400       .  A
C313        H318   1.084       .  S
C314        C315   1.396       .  A
C314       C1288   1.473       .  S
C315        C316   1.398       .  A
C315        H319   1.085       .  S
C316        C317   1.407       .  A
C316       C1273   1.478       .  S
C317        H320   1.083       .  S
O321       Cr339   1.971       .  S
O321        C329   1.261       .  A
O322       Cr339   1.998       .  S
O322        C323   1.263       .  A
C323       C1285   1.490       .  S
C323        O324   1.258       .  A
O324       Cr340   1.983       .  S
O325       Cr340   2.023       .  S
O325        C326   1.270       .  A
C326       C1633   1.474       .  S
C326        O327   1.258       .  A
O327       Cr341   1.968       .  S
O328       Cr341   2.027       .  S
O328        C329   1.275       .  A
C329       C1312   1.491       .  S
O330       Cr339   2.001       .  S
O330        C338   1.262       .  A
O331       Cr339   1.968       .  S
O331        C332   1.261       .  A
C332       C1249   1.492       .  S
C332        O333   1.274       .  A
O333       Cr340   2.028       .  S
O334       Cr340   1.966       .  S
O334        C335   1.254       .  A
C335       C1240   1.468       .  S
C335        O336   1.267       .  A
O336       Cr341   2.013       .  S
O337       Cr341   1.986       .  S
O337        C338   1.259       .  A
C338       C1264   1.490       .  S
Cr339       O342   1.773       .  S
Cr340       O342   1.765       .  S
Cr341       O342   1.770       .  S
C343        C344   1.407       .  A
C343        C348   1.407       .  A
C343       C1369   1.487       .  S
C344        C345   1.403       .  A
C344        H349   1.084       .  S
C345        C346   1.396       .  A
C345       C1225   1.478       .  S
C346        C347   1.399       .  A
C346        H350   1.083       .  S
C347        C348   1.408       .  A
C347       C1213   1.486       .  S
C348        H351   1.083       .  S
C352        C353   1.414       .  A
C352        C357   1.409       .  A
C352       C1201   1.492       .  S
C353        C354   1.409       .  A
C353        H358   1.083       .  S
C354        C355   1.396   1_655  A
C354       C1381   1.482       .  S
C355        C356   1.394       .  A
C355        H359   1.085       .  S
C356        C357   1.402   1_455  A
C356       C1189   1.474       .  S
C357        H360   1.084       .  S
C361        C362   1.407       .  A
C361        C366   1.413       .  A
C361       C1165   1.490       .  S
C362        C363   1.403       .  A
C362        H367   1.084       .  S
C363        C364   1.395       .  A
C363       C1912   1.475       .  S
C364        C365   1.399       .  A
C364        H368   1.085       .  S
C365        C366   1.409       .  A
C365       C1177   1.487       .  S
C366        H369   1.084       .  S
C370        C371   1.411       .  A
C370        C375   1.410       .  A
C370       C1156   1.497       .  S
C371        C372   1.402       .  A
C371        H376   1.082       .  S
C372        C373   1.393       .  A
C372       C1141   1.478       .  S
C373        C374   1.403       .  A
C373        H377   1.084       .  S
C374        C375   1.407       .  A
C374       C1669   1.489       .  S
C375        H378   1.083       .  S
O379       Cr397   1.960       .  S
O379        C387   1.257       .  A
O380       Cr397   2.021       .  S
O380        C381   1.266   1_545  A
C381       C1168   1.486       .  S
C381        O382   1.257       .  A
O382       Cr398   1.976       .  S
O383       Cr398   1.987       .  S
O383        C384   1.263       .  A
C384       C1129   1.473       .  S
C384        O385   1.266       .  A
O385       Cr399   1.985   1_565  S
O386       Cr399   2.017       .  S
O386        C387   1.267       .  A
C387       C1144   1.488       .  S
O388       Cr397   2.021       .  S
O388        C396   1.267       .  A
O389       Cr397   1.952       .  S
O389        C390   1.253       .  A
C390       C1228   1.490       .  S
C390        O391   1.269       .  A
O391       Cr398   2.019   1_545  S
O392       Cr398   1.984       .  S
O392        C393   1.264       .  A
C393       C1516   1.465       .  S
C393        O394   1.260       .  A
O394       Cr399   1.980   1_565  S
O395       Cr399   1.974       .  S
O395        C396   1.257       .  A
C396       C1204   1.484       .  S
Cr397       O400   1.775       .  S
Cr398       O400   1.773   1_565  S
Cr399       O400   1.770       .  S
O401       Cr419   1.967       .  S
O401        C409   1.258       .  A
O402       Cr419   1.998       .  S
O402        C403   1.262   1_565  A
C403       C1120   1.489   1_545  S
C403        O404   1.259       .  A
O404       Cr420   1.984       .  S
O405       Cr420   2.000       .  S
O405        C406   1.266       .  A
C406       C1705   1.488       .  S
C406        O407   1.261       .  A
O407       Cr421   1.976       .  S
O408       Cr421   2.024   1_565  S
O408        C409   1.270       .  A
C409       C1108   1.475       .  S
O410       Cr419   2.007       .  S
O410        C418   1.265       .  A
O411       Cr419   1.961   1_545  S
O411        C412   1.260       .  A
C412       C1153   1.478       .  S
C412        O413   1.270       .  A
O413       Cr420   2.024       .  S
O414       Cr420   1.982       .  S
O414        C415   1.262       .  A
C415       C1093   1.477       .  S
C415        O416   1.267       .  A
O416       Cr421   2.000       .  S
O417       Cr421   1.982       .  S
O417        C418   1.258   1_545  A
C418       C1180   1.494       .  S
Cr419       O422   1.769   1_565  S
Cr420       O422   1.767       .  S
Cr421       O422   1.766       .  S
C423        C424   1.411       .  A
C423        C428   1.409       .  A
C423       C1105   1.489       .  S
C424        C425   1.403       .  A
C424        H429   1.084       .  S
C425        C426   1.397   1_455  A
C425       C1081   1.480       .  S
C426        C427   1.399       .  A
C426        H430   1.085       .  S
C427        C428   1.403   1_655  A
C427       C1069   1.480       .  S
C428        H431   1.083       .  S
C432        C433   1.409       .  A
C432        C437   1.411       .  A
C432       C1057   1.489       .  S
C433        C434   1.406       .  A
C433        H438   1.083       .  S
C434        C435   1.398       .  A
C434       C1045   1.482       .  S
C435        C436   1.393       .  A
C435        H439   1.085       .  S
C436        C437   1.401       .  A
C436       C1117   1.473       .  S
C437        H440   1.084       .  S
C441        C442   1.417       .  A
C441        C446   1.412       .  A
C441       C1252   1.500       .  S
C442        C443   1.407       .  A
C442        H447   1.083       .  S
C443        C444   1.394   1_655  A
C443       C1033   1.481       .  S
C444        C445   1.394       .  A
C444        H448   1.085       .  S
C445        C446   1.402   1_455  A
C445       C1789   1.476       .  S
C446        H449   1.083       .  S
C450        C451   1.417       .  A
C450        C455   1.411       .  A
C450       C1021   1.497       .  S
C451        C452   1.405       .  A
C451        H456   1.083       .  S
C452        C453   1.391       .  A
C452       C1261   1.480       .  S
C453        C454   1.398       .  A
C453        H457   1.085       .  S
C454        C455   1.405       .  A
C454       C1741   1.483       .  S
C455        H458   1.082       .  S
O459       Cr477   2.008       .  S
O459        C467   1.264       .  A
O460       Cr477   1.969   1_655  S
O460        C461   1.260       .  A
C461       C1024   1.484       .  S
C461        O462   1.274       .  A
O462       Cr478   2.034       .  S
O463       Cr478   1.979       .  S
O463        C464   1.260       .  A
C464       C1009   1.485       .  S
C464        O465   1.267   1_655  A
O465       Cr479   1.996       .  S
O466       Cr479   1.976       .  S
O466        C467   1.257       .  A
C467       C1036   1.490       .  S
O468       Cr477   1.971       .  S
O468        C476   1.259       .  A
O469       Cr477   2.002   1_655  S
O469        C470   1.262       .  A
C470       C1084   1.490       .  S
C470        O471   1.258       .  A
O471       Cr478   1.984       .  S
O472       Cr478   2.018   1_455  S
O472        C473   1.270       .  A
C473       C1681   1.476       .  S
C473        O474   1.259       .  A
O474       Cr479   1.969       .  S
O475       Cr479   2.021       .  S
O475        C476   1.269       .  A
C476       C1060   1.477       .  S
Cr477       O480   1.774       .  S
Cr478       O480   1.771   1_655  S
Cr479       O480   1.769       .  S
C481        C482   1.413       .  A
C481        C486   1.410       .  A
C481        C985   1.492       .  S
C482        C483   1.402       .  A
C482        H487   1.083       .  S
C483        C484   1.391       .  A
C483        C997   1.475       .  S
C484        C485   1.395       .  A
C484        H488   1.085       .  S
C485        C486   1.403       .  A
C485       C1360   1.473       .  S
C486        H489   1.083       .  S
C490        C491   1.414       .  A
C490        C495   1.411   1_565  A
C490        C973   1.495       .  S
C491        C492   1.405   1_565  A
C491        H496   1.084       .  S
C492        C493   1.396       .  A
C492        C961   1.481       .  S
C493        C494   1.396       .  A
C493        H497   1.085       .  S
C494        C495   1.403       .  A
C494       C1324   1.475       .  S
C495        H498   1.083       .  S
O499       Cr517   1.965   1_565  S
O499        C507   1.260       .  A
O500       Cr517   2.006       .  S
O500        C501   1.264       .  A
C501        C964   1.494       .  S
C501        O502   1.256       .  A
O502       Cr518   1.979       .  S
O503       Cr518   2.014       .  S
O503        C504   1.267   1_545  A
C504       C1492   1.469       .  S
C504        O505   1.257       .  A
O505       Cr519   1.969       .  S
O506       Cr519   2.025       .  S
O506        C507   1.271       .  A
C507        C988   1.476       .  S
O508       Cr517   2.005       .  S
O508        C516   1.264       .  A
O509       Cr517   1.966       .  S
O509        C510   1.260       .  A
C510        C937   1.482       .  S
C510        O511   1.275       .  A
O511       Cr518   2.036       .  S
O512       Cr518   1.964       .  S
O512        C513   1.256       .  A
C513       C1216   1.465       .  S
C513        O514   1.266       .  A
O514       Cr519   2.007   1_545  S
O515       Cr519   1.972   1_545  S
O515        C516   1.256       .  A
C516        C949   1.485       .  S
Cr517       O520   1.770       .  S
Cr518       O520   1.767       .  S
Cr519       O520   1.768   1_565  S
C521        C522   1.412   1_565  A
C521        C526   1.410       .  A
C521        C913   1.492       .  S
C522        C523   1.407       .  A
C522        H527   1.083       .  S
C523        C524   1.400       .  A
C523       C1660   1.486       .  S
C524        C525   1.392       .  A
C524        H528   1.085       .  S
C525        C526   1.399   1_545  A
C525        C925   1.472       .  S
C526        H529   1.083       .  S
C530        C531   1.413       .  A
C530        C535   1.419       .  A
C530        C901   1.506       .  S
C531        C532   1.402       .  A
C531        H536   1.084       .  S
C532        C533   1.394       .  A
C532       C1732   1.481       .  S
C533        C534   1.400       .  A
C533        H537   1.085       .  S
C534        C535   1.416       .  A
C534        C892   1.494       .  S
C535        H538   1.083       .  S
C539        C540   1.415       .  A
C539        C544   1.409       .  A
C539        C868   1.495       .  S
C540        C541   1.409       .  A
C540        H545   1.083       .  S
C541        C542   1.397       .  A
C541        C880   1.485   1_554  S
C542        C543   1.390       .  A
C542        H546   1.085       .  S
C543        C544   1.397       .  A
C543       C1777   1.469       .  S
C544        H547   1.083       .  S
C548        C549   1.410       .  A
C548        C553   1.416       .  A
C548        C853   1.501       .  S
C549        C550   1.401       .  A
C549        H554   1.084       .  S
C550        C551   1.392       .  A
C550       C1576   1.472       .  S
C551        C552   1.396       .  A
C551        H555   1.085       .  S
C552        C553   1.410       .  A
C552        C841   1.481       .  S
C553        H556   1.082       .  S
C557        C558   1.409       .  A
C557        C562   1.411       .  A
C557        C817   1.493       .  S
C558        C559   1.400       .  A
C558        H563   1.084       .  S
C559        C560   1.392   1_545  A
C559        C832   1.470       .  S
C560        C561   1.394       .  A
C560        H564   1.085       .  S
C561        C562   1.405   1_565  A
C561       C1237   1.473       .  S
C562        H565   1.083       .  S
C566        C567   1.408       .  A
C566        C571   1.413       .  A
C566        C805   1.489       .  S
C567        C568   1.399       .  A
C567        H572   1.084       .  S
C568        C569   1.396       .  A
C568       C1012   1.473       .  S
C569        C570   1.396       .  A
C569        H573   1.085       .  S
C570        C571   1.407       .  A
C570        C793   1.479       .  S
C571        H574   1.083       .  S
O575       Cr593   1.969       .  S
O575        C583   1.260       .  A
O576       Cr593   2.005       .  S
O576        C577   1.265       .  A
C577        C796   1.496       .  S
C577        O578   1.258   1_655  A
O578       Cr594   1.980       .  S
O579       Cr594   2.000       .  S
O579        C580   1.266       .  A
C580       C1861   1.492       .  S
C580        O581   1.263       .  A
O581       Cr595   1.981       .  S
O582       Cr595   2.016   1_655  S
O582        C583   1.270       .  A
C583        C820   1.486       .  S
O584       Cr593   2.001       .  S
O584        C592   1.263       .  A
O585       Cr593   1.973       .  S
O585        C586   1.259   1_655  A
C586        C865   1.490       .  S
C586        O587   1.270       .  A
O587       Cr594   2.014       .  S
O588       Cr594   1.984       .  S
O588        C589   1.261       .  A
C589       C1300   1.473       .  S
C589        O590   1.265       .  A
O590       Cr595   2.001       .  S
O591       Cr595   1.982   1_655  S
O591        C592   1.261       .  A
C592        C844   1.493       .  S
Cr593       O596   1.773   1_655  S
Cr594       O596   1.763       .  S
Cr595       O596   1.766       .  S
O597       Cr615   1.948       .  S
O597        C605   1.250       .  A
O598       Cr615   2.032   1_565  S
O598        C599   1.273       .  A
C599        C904   1.505       .  S
C599        O600   1.257       .  A
O600       Cr616   1.965       .  S
O601       Cr616   1.994       .  S
O601        C602   1.262       .  A
C602       C1048   1.464       .  S
C602        O603   1.262   1_565  A
O603       Cr617   1.974       .  S
O604       Cr617   2.017       .  S
O604        C605   1.266       .  A
C605        C928   1.480       .  S
O606       Cr615   2.031       .  S
O606        C614   1.271       .  A
O607       Cr615   1.950       .  S
O607        C608   1.250       .  A
C608        C829   1.482       .  S
C608        O609   1.266   1_545  A
O609       Cr616   2.019       .  S
O610       Cr616   1.984   1_545  S
O610        C611   1.265       .  A
C611       C1825   1.476       .  S
C611        O612   1.265       .  A
O612       Cr617   2.003       .  S
O613       Cr617   1.957       .  S
O613        C614   1.258       .  A
C614        C808   1.500       .  S
Cr615       O618   1.774       .  S
Cr616       O618   1.774   1_565  S
Cr617       O618   1.773       .  S
O619       Cr637   1.993       .  S
O619        C627   1.261       .  A
O620       Cr637   1.974       .  S
O620        C621   1.263   1_455  A
C621        C856   1.492       .  S
C621        O622   1.272       .  A
O622       Cr638   2.019       .  S
O623       Cr638   1.977       .  S
O623        C624   1.258       .  A
C624       C1276   1.472       .  S
C624        O625   1.266       .  A
O625       Cr639   2.009       .  S
O626       Cr639   1.989       .  S
O626        C627   1.260   1_655  A
C627        C877   1.487       .  S
O628       Cr637   1.972       .  S
O628        C636   1.260       .  A
O629       Cr637   1.993       .  S
O629        C630   1.260       .  A
C630       C1000   1.485       .  S
C630        O631   1.260   1_455  A
O631       Cr638   1.988       .  S
O632       Cr638   2.004       .  S
O632        C633   1.269       .  A
C633       C1468   1.488       .  S
C633        O634   1.260       .  A
O634       Cr639   1.974       .  S
O635       Cr639   2.029   1_455  S
O635        C636   1.272       .  A
C636        C976   1.480       .  S
Cr637       O640   1.770   1_455  S
Cr638       O640   1.763       .  S
Cr639       O640   1.768       .  S
C641        C642   1.410       .  A
C641        C646   1.418       .  A
C641        C772   1.504       .  S
C642        C643   1.398       .  A
C642        H647   1.083       .  S
C643        C644   1.394       .  A
C643       C1096   1.474       .  S
C644        C645   1.401       .  A
C644        H648   1.083       .  S
C645        C646   1.414       .  A
C645        C784   1.501       .  S
C646        H649   1.081       .  S
C650        C651   1.416       .  A
C650        C655   1.412       .  A
C650        C757   1.498       .  S
C651        C652   1.406       .  A
C651        H656   1.083       .  S
C652        C653   1.394       .  A
C652        C745   1.482       .  S
C653        C654   1.394       .  A
C653        H657   1.085       .  S
C654        C655   1.405       .  A
C654       C1132   1.483       .  S
C655        H658   1.083       .  S
O659       Cr677   1.970       .  S
O659        C667   1.258       .  A
O660       Cr677   1.996       .  S
O660        C661   1.262       .  A
C661        C748   1.492       .  S
C661        O662   1.258       .  A
O662       Cr678   1.986       .  S
O663       Cr678   1.989       .  S
O663        C664   1.264       .  A
C664       C1948   1.484       .  S
C664        O665   1.262       .  A
O665       Cr679   1.987       .  S
O666       Cr679   2.025       .  S
O666        C667   1.271       .  A
C667        C769   1.482       .  S
O668       Cr677   2.008       .  S
O668        C676   1.264       .  A
O669       Cr677   1.973       .  S
O669        C670   1.263       .  A
C670        C916   1.489       .  S
C670        O671   1.271       .  A
O671       Cr678   2.018       .  S
O672       Cr678   1.982       .  S
O672        C673   1.264       .  A
C673       C1072   1.490       .  S
C673        O674   1.267       .  A
O674       Cr679   2.000       .  S
O675       Cr679   1.990       .  S
O675        C676   1.260       .  A
C676        C889   1.498       .  S
Cr677       O680   1.774       .  S
Cr678       O680   1.768       .  S
Cr679       O680   1.767       .  S
C681        C682   1.410       .  A
C681        C686   1.414       .  A
C681        C940   1.497       .  S
C682        C683   1.407       .  A
C682        H687   1.083       .  S
C683        C684   1.394       .  A
C683       C1444   1.479       .  S
C684        C685   1.394       .  A
C684        H688   1.085       .  S
C685        C686   1.407       .  A
C685        C733   1.480       .  S
C686        H689   1.083       .  S
C690        C691   1.411       .  A
C690        C695   1.412       .  A
C690        C721   1.499       .  S
C691        C692   1.401       .  A
C691        H696   1.083       .  S
C692        C693   1.392   1_545  A
C692        C952   1.474       .  S
C693        C694   1.400       .  A
C693        H697   1.083       .  S
C694        C695   1.410   1_565  A
C694       C1900   1.493       .  S
C695        H698   1.082       .  S
O699       Cr717   2.002       .  S
O699        C707   1.263       .  A
O700       Cr717   1.968       .  S
O700        C701   1.260       .  A
C701        C724   1.489       .  S
C701        O702   1.272       .  A
O702       Cr718   2.025       .  S
O703       Cr718   1.981       .  S
O703        C704   1.260       .  A
C704       C1192   1.473       .  S
C704        O705   1.265       .  A
O705       Cr719   2.004       .  S
O706       Cr719   1.985       .  S
O706        C707   1.259       .  A
C707        C736   1.488       .  S
O708       Cr717   1.973       .  S
O708        C716   1.261       .  A
O709       Cr717   2.005       .  S
O709        C710   1.262       .  A
C710        C781   1.484       .  S
C710        O711   1.259       .  A
O711       Cr718   1.987       .  S
O712       Cr718   2.009       .  S
O712        C713   1.266       .  A
C713       C1981   1.471       .  S
C713        O714   1.260       .  A
O714       Cr719   1.972       .  S
O715       Cr719   2.022       .  S
O715        C716   1.271       .  A
C716        C760   1.494       .  S
Cr717       O720   1.776       .  S
Cr718       O720   1.767       .  S
Cr719       O720   1.770       .  S
C721        C722   1.408       .  A
C721        C726   1.417       .  A
C722        C723   1.405       .  A
C722        H727   1.084       .  S
C723        C724   1.414       .  A
C723        C730   1.443       .  S
C724        C725   1.405       .  A
C725        C726   1.401       .  A
C725        H728   1.084       .  S
C726        C729   1.445       .  S
C729        N731   1.157       .  T
C730        N732   1.157       .  T
C733        C734   1.399       .  A
C733        C738   1.412       .  A
C734        C735   1.401       .  A
C734        H739   1.085       .  S
C735        C736   1.418       .  A
C735        C742   1.443       .  S
C736        C737   1.406       .  A
C737        C738   1.403       .  A
C737        H740   1.085       .  S
C738        C741   1.445       .  S
C741        N743   1.157       .  T
C742        N744   1.157       .  T
C745        C746   1.401       .  A
C745        C750   1.411       .  A
C746        C747   1.404       .  A
C746        H751   1.085       .  S
C747        C748   1.421       .  A
C747        C754   1.444       .  S
C748        C749   1.407       .  A
C749        C750   1.398       .  A
C749        H752   1.084       .  S
C750        C753   1.445       .  S
C753        N755   1.157       .  T
C754        N756   1.157       .  T
C757        C758   1.407       .  A
C757        C762   1.414       .  A
C758        C759   1.403       .  A
C758        H763   1.085       .  S
C759        C760   1.416       .  A
C759        C766   1.444       .  S
C760        C761   1.408       .  A
C761        C762   1.404       .  A
C761        H764   1.085       .  S
C762        C765   1.444       .  S
C765        N767   1.157       .  T
C766        N768   1.157       .  T
C769        C770   1.404       .  A
C769        C774   1.406       .  A
C770        C771   1.403       .  A
C770        H775   1.085       .  S
C771        C772   1.418       .  A
C771        C778   1.444       .  S
C772        C773   1.414       .  A
C773        C774   1.405       .  A
C773        H776   1.084       .  S
C774        C777   1.443       .  S
C777        N779   1.157       .  T
C778        N780   1.157       .  T
C781        C782   1.401       .  A
C781        C786   1.412       .  A
C782        C783   1.402       .  A
C782        H787   1.085       .  S
C783        C784   1.422       .  A
C783        C790   1.445       .  S
C784        C785   1.407       .  A
C785        C786   1.403       .  A
C785        H788   1.083       .  S
C786        C789   1.443       .  S
C789        N791   1.157       .  T
C790        N792   1.157       .  T
C793        C794   1.400       .  A
C793        C798   1.408       .  A
C794        C795   1.404       .  A
C794        H799   1.085       .  S
C795        C796   1.422       .  A
C795        C802   1.445   1_655  S
C796        C797   1.409       .  A
C797        C798   1.400       .  A
C797        H800   1.084       .  S
C798        C801   1.444       .  S
C801        N803   1.157       .  T
C802        N804   1.158       .  T
C805        C806   1.406       .  A
C805        C810   1.410       .  A
C806        C807   1.409       .  A
C806        H811   1.084       .  S
C807        C808   1.418       .  A
C807        C814   1.442       .  S
C808        C809   1.411       .  A
C809        C810   1.397       .  A
C809        H812   1.084       .  S
C810        C813   1.446       .  S
C813        N815   1.157       .  T
C814        N816   1.157       .  T
C817        C818   1.407       .  A
C817        C822   1.415       .  A
C818        C819   1.400       .  A
C818        H823   1.085       .  S
C819        C820   1.414       .  A
C819        C826   1.445       .  S
C820        C821   1.406       .  A
C821        C822   1.403       .  A
C821        H824   1.085       .  S
C822        C825   1.444       .  S
C825        N827   1.157       .  T
C826        N828   1.157       .  T
C829        C830   1.405       .  A
C829        C834   1.420       .  A
C830        C831   1.401       .  A
C830        H835   1.085   1_545  S
C831        C832   1.409       .  A
C831        C838   1.444   1_545  S
C832        C833   1.395       .  A
C833        C834   1.396       .  A
C833        H836   1.085       .  S
C834        C837   1.444       .  S
C837        N839   1.157       .  T
C838        N840   1.157       .  T
C841        C842   1.402   1_556  A
C841        C846   1.409       .  A
C842        C843   1.402       .  A
C842        H847   1.085       .  S
C843        C844   1.419       .  A
C843        C850   1.444       .  S
C844        C845   1.408       .  A
C845        C846   1.400   1_554  A
C845        H848   1.085   1_655  S
C846        C849   1.443       .  S
C849        N851   1.157   1_655  T
C850        N852   1.157       .  T
C853        C854   1.409       .  A
C853        C858   1.416       .  A
C854        C855   1.404       .  A
C854        H859   1.085       .  S
C855        C856   1.416       .  A
C855        C862   1.444       .  S
C856        C857   1.406       .  A
C857        C858   1.403       .  A
C857        H860   1.085   1_655  S
C858        C861   1.442   1_655  S
C861        N863   1.157       .  T
C862        N864   1.157       .  T
C865        C866   1.404       .  A
C865        C870   1.417   1_455  A
C866        C867   1.399       .  A
C866        H871   1.085       .  S
C867        C868   1.416       .  A
C867        C874   1.444       .  S
C868        C869   1.406       .  A
C869        C870   1.405   1_455  A
C869        H872   1.085   1_455  S
C870        C873   1.445       .  S
C873        N875   1.157       .  T
C874        N876   1.157       .  T
C877        C878   1.408       .  A
C877        C882   1.416       .  A
C878        C879   1.404       .  A
C878        H883   1.085   1_455  S
C879        C880   1.411       .  A
C879        C886   1.444   1_456  S
C880        C881   1.404       .  A
C881        C882   1.397       .  A
C881        H884   1.085       .  S
C882        C885   1.445       .  S
C885        N887   1.157       .  T
C886        N888   1.157       .  T
C889        C890   1.410       .  A
C889        C894   1.417       .  A
C890        C891   1.407       .  A
C890        H895   1.085       .  S
C891        C892   1.411       .  A
C891        C898   1.442       .  S
C892        C893   1.406       .  A
C893        C894   1.403       .  A
C893        H896   1.085       .  S
C894        C897   1.444       .  S
C897        N899   1.157       .  T
C898        N900   1.157       .  T
C901        C902   1.406       .  A
C901        C906   1.416       .  A
C902        C903   1.402       .  A
C902        H907   1.085       .  S
C903        C904   1.421       .  A
C903        C910   1.445       .  S
C904        C905   1.409       .  A
C905        C906   1.412       .  A
C905        H908   1.084       .  S
C906        C909   1.441       .  S
C909        N911   1.157       .  T
C910        N912   1.157       .  T
C913        C914   1.405       .  A
C913        C918   1.415       .  A
C914        C915   1.402       .  A
C914        H919   1.085       .  S
C915        C916   1.416       .  A
C915        C922   1.444       .  S
C916        C917   1.406       .  A
C917        C918   1.401       .  A
C917        H920   1.085       .  S
C918        C921   1.445       .  S
C921        N923   1.157       .  T
C922        N924   1.157       .  T
C925        C926   1.403       .  A
C925        C930   1.405       .  A
C926        C927   1.400       .  A
C926        H931   1.085       .  S
C927        C928   1.412       .  A
C927        C934   1.444       .  S
C928        C929   1.409       .  A
C929        C930   1.397       .  A
C929        H932   1.085       .  S
C930        C933   1.444   1_545  S
C933        N935   1.157       .  T
C934        N936   1.157       .  T
C937        C938   1.400       .  A
C937        C942   1.413       .  A
C938        C939   1.407       .  A
C938        H943   1.085       .  S
C939        C940   1.418       .  A
C939        C946   1.441       .  S
C940        C941   1.404       .  A
C941        C942   1.402       .  A
C941        H944   1.085       .  S
C942        C945   1.445       .  S
C945        N947   1.157       .  T
C946        N948   1.156       .  T
C949        C950   1.407       .  A
C949        C954   1.417       .  A
C950        C951   1.400       .  A
C950        H955   1.084       .  S
C951        C952   1.407       .  A
C951        C958   1.444       .  S
C952        C953   1.401       .  A
C953        C954   1.400       .  A
C953        H956   1.085       .  S
C954        C957   1.444   1_545  S
C957        N959   1.157       .  T
C958        N960   1.157       .  T
C961        C962   1.400       .  A
C961        C966   1.409       .  A
C962        C963   1.404       .  A
C962        H967   1.085   1_545  S
C963        C964   1.422       .  A
C963        C970   1.444       .  S
C964        C965   1.408       .  A
C965        C966   1.399       .  A
C965        H968   1.084       .  S
C966        C969   1.444       .  S
C969        N971   1.157       .  T
C970        N972   1.157       .  T
C973        C974   1.404       .  A
C973        C978   1.418       .  A
C974        C975   1.399       .  A
C974        H979   1.085       .  S
C975        C976   1.412       .  A
C975        C982   1.444       .  S
C976        C977   1.403       .  A
C977        C978   1.408       .  A
C977        H980   1.084       .  S
C978        C981   1.444       .  S
C981        N983   1.157       .  T
C982        N984   1.157       .  T
C985        C986   1.411       .  A
C985        C990   1.413       .  A
C986        C987   1.406       .  A
C986        H991   1.084       .  S
C987        C988   1.408       .  A
C987        C994   1.443       .  S
C988        C989   1.403       .  A
C989        C990   1.398       .  A
C989        H992   1.086       .  S
C990        C993   1.445       .  S
C993        N995   1.157       .  T
C994        N996   1.157       .  T
C997        C998   1.398       .  A
C997       C1002   1.410       .  A
C998        C999   1.400       .  A
C998       H1003   1.085       .  S
C999       C1000   1.419       .  A
C999       C1006   1.444       .  S
C1000      C1001   1.405       .  A
C1001      C1002   1.401       .  A
C1001      H1004   1.084   1_455  S
C1002      C1005   1.444       .  S
C1005      N1007   1.157   1_455  T
C1006      N1008   1.157       .  T
C1009      C1010   1.405       .  A
C1009      C1014   1.416       .  A
C1010      C1011   1.389       .  A
C1010      H1015   1.083   1_655  S
C1011      C1012   1.404       .  A
C1011      C1018   1.445   1_655  S
C1012      C1013   1.405       .  A
C1013      C1014   1.407       .  A
C1013      H1016   1.086       .  S
C1014      C1017   1.444       .  S
C1017      N1019   1.157       .  T
C1018      N1020   1.157       .  T
C1021      C1022   1.403       .  A
C1021      C1026   1.420       .  A
C1022      C1023   1.399       .  A
C1022      H1027   1.085       .  S
C1023      C1024   1.413       .  A
C1023      C1030   1.443       .  S
C1024      C1025   1.403       .  A
C1025      C1026   1.409       .  A
C1025      H1028   1.084       .  S
C1026      C1029   1.444       .  S
C1029      N1031   1.157       .  T
C1030      N1032   1.157       .  T
C1033      C1034   1.403   1_655  A
C1033      C1038   1.408       .  A
C1034      C1035   1.401       .  A
C1034      H1039   1.085       .  S
C1035      C1036   1.416       .  A
C1035      C1042   1.444       .  S
C1036      C1037   1.409   1_455  A
C1037      C1038   1.404       .  A
C1037      H1040   1.084       .  S
C1038      C1041   1.443       .  S
C1041      N1043   1.157       .  T
C1042      N1044   1.157       .  T
C1045      C1046   1.406       .  A
C1045      C1050   1.413       .  A
C1046      C1047   1.394       .  A
C1046      H1051   1.085   1_565  S
C1047      C1048   1.408       .  A
C1047      C1054   1.445   1_565  S
C1048      C1049   1.402       .  A
C1049      C1050   1.401       .  A
C1049      H1052   1.084       .  S
C1050      C1053   1.443       .  S
C1053      N1055   1.157       .  T
C1054      N1056   1.157       .  T
C1057      C1058   1.402       .  A
C1057      C1062   1.417       .  A
C1058      C1059   1.397       .  A
C1058      H1063   1.085       .  S
C1059      C1060   1.413       .  A
C1059      C1066   1.444       .  S
C1060      C1061   1.401       .  A
C1061      C1062   1.406       .  A
C1061      H1064   1.084       .  S
C1062      C1065   1.443       .  S
C1065      N1067   1.157       .  T
C1066      N1068   1.157       .  T
C1069      C1070   1.399       .  A
C1069      C1074   1.410       .  A
C1070      C1071   1.395       .  A
C1070      H1075   1.086       .  S
C1071      C1072   1.421       .  A
C1071      C1078   1.446       .  S
C1072      C1073   1.409       .  A
C1073      C1074   1.406       .  A
C1073      H1076   1.084       .  S
C1074      C1077   1.443       .  S
C1077      N1079   1.157       .  T
C1078      N1080   1.158       .  T
C1081      C1082   1.400       .  A
C1081      C1086   1.409       .  A
C1082      C1083   1.404       .  A
C1082      H1087   1.085       .  S
C1083      C1084   1.419   1_455  A
C1083      C1090   1.444       .  S
C1084      C1085   1.406       .  A
C1085      C1086   1.401   1_655  A
C1085      H1088   1.084       .  S
C1086      C1089   1.444   1_455  S
C1089      N1091   1.157       .  T
C1090      N1092   1.157       .  T
C1093      C1094   1.406       .  A
C1093      C1098   1.412       .  A
C1094      C1095   1.394       .  A
C1094      H1099   1.085       .  S
C1095      C1096   1.406       .  A
C1095      C1102   1.445       .  S
C1096      C1097   1.404       .  A
C1097      C1098   1.405       .  A
C1097      H1100   1.085       .  S
C1098      C1101   1.443       .  S
C1101      N1103   1.157       .  T
C1102      N1104   1.157       .  T
C1105      C1106   1.403       .  A
C1105      C1110   1.417       .  A
C1106      C1107   1.399       .  A
C1106      H1111   1.085       .  S
C1107      C1108   1.412       .  A
C1107      C1114   1.445       .  S
C1108      C1109   1.401       .  A
C1109      C1110   1.405       .  A
C1109      H1112   1.085       .  S
C1110      C1113   1.444       .  S
C1113      N1115   1.157       .  T
C1114      N1116   1.157   1_565  T
C1117      C1118   1.398       .  A
C1117      C1122   1.408       .  A
C1118      C1119   1.400       .  A
C1118      H1123   1.085       .  S
C1119      C1120   1.420       .  A
C1119      C1126   1.444       .  S
C1120      C1121   1.408   1_565  A
C1121      C1122   1.401   1_545  A
C1121      H1124   1.084       .  S
C1122      C1125   1.444   1_565  S
C1125      N1127   1.157       .  T
C1126      N1128   1.157       .  T
C1129      C1130   1.406       .  A
C1129      C1134   1.409       .  A
C1130      C1131   1.401       .  A
C1130      H1135   1.085       .  S
C1131      C1132   1.411       .  A
C1131      C1138   1.444       .  S
C1132      C1133   1.406       .  A
C1133      C1134   1.396       .  A
C1133      H1136   1.085       .  S
C1134      C1137   1.444       .  S
C1137      N1139   1.157       .  T
C1138      N1140   1.157       .  T
C1141      C1142   1.403       .  A
C1141      C1146   1.408       .  A
C1142      C1143   1.405       .  A
C1142      H1147   1.085       .  S
C1143      C1144   1.417       .  A
C1143      C1150   1.443       .  S
C1144      C1145   1.407       .  A
C1145      C1146   1.395       .  A
C1145      H1148   1.085       .  S
C1146      C1149   1.444       .  S
C1149      N1151   1.157       .  T
C1150      N1152   1.157       .  T
C1153      C1154   1.400       .  A
C1153      C1158   1.409       .  A
C1154      C1155   1.395       .  A
C1154      H1159   1.086       .  S
C1155      C1156   1.417       .  A
C1155      C1162   1.442       .  S
C1156      C1157   1.412       .  A
C1157      C1158   1.406       .  A
C1157      H1160   1.084       .  S
C1158      C1161   1.444       .  S
C1161      N1163   1.157       .  T
C1162      N1164   1.157       .  T
C1165      C1166   1.401       .  A
C1165      C1170   1.415       .  A
C1166      C1167   1.401       .  A
C1166      H1171   1.085       .  S
C1167      C1168   1.415       .  A
C1167      C1174   1.445       .  S
C1168      C1169   1.404       .  A
C1169      C1170   1.409       .  A
C1169      H1172   1.084   1_565  S
C1170      C1173   1.443   1_565  S
C1173      N1175   1.157       .  T
C1174      N1176   1.157       .  T
C1177      C1178   1.402   1_565  A
C1177      C1182   1.412       .  A
C1178      C1179   1.405       .  A
C1178      H1183   1.085       .  S
C1179      C1180   1.421   1_545  A
C1179      C1186   1.445       .  S
C1180      C1181   1.406       .  A
C1181      C1182   1.400       .  A
C1181      H1184   1.084       .  S
C1182      C1185   1.445       .  S
C1185      N1187   1.157       .  T
C1186      N1188   1.158       .  T
C1189      C1190   1.405       .  A
C1189      C1194   1.406       .  A
C1190      C1191   1.403       .  A
C1190      H1195   1.085       .  S
C1191      C1192   1.409       .  A
C1191      C1198   1.443       .  S
C1192      C1193   1.405       .  A
C1193      C1194   1.397       .  A
C1193      H1196   1.084       .  S
C1194      C1197   1.444       .  S
C1197      N1199   1.157       .  T
C1198      N1200   1.157       .  T
C1201      C1202   1.402       .  A
C1201      C1206   1.417       .  A
C1202      C1203   1.401       .  A
C1202      H1207   1.085       .  S
C1203      C1204   1.415       .  A
C1203      C1210   1.445       .  S
C1204      C1205   1.403       .  A
C1205      C1206   1.408       .  A
C1205      H1208   1.084       .  S
C1206      C1209   1.443       .  S
C1209      N1211   1.157       .  T
C1210      N1212   1.157       .  T
C1213      C1214   1.402       .  A
C1213      C1218   1.420       .  A
C1214      C1215   1.395       .  A
C1214      H1219   1.085       .  S
C1215      C1216   1.411       .  A
C1215      C1222   1.444       .  S
C1216      C1217   1.397       .  A
C1217      C1218   1.400       .  A
C1217      H1220   1.085       .  S
C1218      C1221   1.445       .  S
C1221      N1223   1.157       .  T
C1222      N1224   1.157       .  T
C1225      C1226   1.398       .  A
C1225      C1230   1.411       .  A
C1226      C1227   1.396       .  A
C1226      H1231   1.086       .  S
C1227      C1228   1.422       .  A
C1227      C1234   1.445       .  S
C1228      C1229   1.407       .  A
C1229      C1230   1.402       .  A
C1229      H1232   1.084   1_545  S
C1230      C1233   1.444       .  S
C1233      N1235   1.157   1_545  T
C1234      N1236   1.157       .  T
C1237      C1238   1.406       .  A
C1237      C1242   1.407       .  A
C1238      C1239   1.403       .  A
C1238      H1243   1.085       .  S
C1239      C1240   1.408       .  A
C1239      C1246   1.444       .  S
C1240      C1241   1.402       .  A
C1241      C1242   1.395       .  A
C1241      H1244   1.082       .  S
C1242      C1245   1.445       .  S
C1245      N1247   1.157       .  T
C1246      N1248   1.157       .  T
C1249      C1250   1.407       .  A
C1249      C1254   1.414       .  A
C1250      C1251   1.403       .  A
C1250      H1255   1.084       .  S
C1251      C1252   1.415       .  A
C1251      C1258   1.444       .  S
C1252      C1253   1.408       .  A
C1253      C1254   1.404       .  A
C1253      H1256   1.084       .  S
C1254      C1257   1.444       .  S
C1257      N1259   1.157       .  T
C1258      N1260   1.157       .  T
C1261      C1262   1.400       .  A
C1261      C1266   1.411       .  A
C1262      C1263   1.404       .  A
C1262      H1267   1.085       .  S
C1263      C1264   1.419       .  A
C1263      C1270   1.444       .  S
C1264      C1265   1.406       .  A
C1265      C1266   1.401       .  A
C1265      H1268   1.085       .  S
C1266      C1269   1.444       .  S
C1269      N1271   1.157       .  T
C1270      N1272   1.157       .  T
C1273      C1274   1.407       .  A
C1273      C1278   1.409       .  A
C1274      C1275   1.405       .  A
C1274      H1279   1.084       .  S
C1275      C1276   1.409       .  A
C1275      C1282   1.444       .  S
C1276      C1277   1.403       .  A
C1277      C1278   1.397       .  A
C1277      H1280   1.085       .  S
C1278      C1281   1.445       .  S
C1281      N1283   1.157       .  T
C1282      N1284   1.157       .  T
C1285      C1286   1.410       .  A
C1285      C1290   1.419       .  A
C1286      C1287   1.397       .  A
C1286      H1291   1.084       .  S
C1287      C1288   1.405   1_554  A
C1287      C1294   1.444       .  S
C1288      C1289   1.401       .  A
C1289      C1290   1.403   1_556  A
C1289      H1292   1.085       .  S
C1290      C1293   1.444       .  S
C1293      N1295   1.157       .  T
C1294      N1296   1.157       .  T
C1297      C1298   1.407       .  A
C1297      C1302   1.407       .  A
C1298      C1299   1.406       .  A
C1298      H1303   1.084       .  S
C1299      C1300   1.409       .  A
C1299      C1306   1.443       .  S
C1300      C1301   1.404       .  A
C1301      C1302   1.395       .  A
C1301      H1304   1.086       .  S
C1302      C1305   1.445       .  S
C1305      N1307   1.157       .  T
C1306      N1308   1.157       .  T
C1309      C1310   1.406       .  A
C1309      C1314   1.417       .  A
C1310      C1311   1.405       .  A
C1310      H1315   1.085       .  S
C1311      C1312   1.416       .  A
C1311      C1318   1.444       .  S
C1312      C1313   1.405       .  A
C1313      C1314   1.404       .  A
C1313      H1316   1.085       .  S
C1314      C1317   1.444       .  S
C1317      N1319   1.157       .  T
C1318      N1320   1.157       .  T
C1321      C1322   1.408       .  A
C1321      C1326   1.415       .  A
C1322      C1323   1.395       .  A
C1322      H1327   1.085       .  S
C1323      C1324   1.406       .  A
C1323      C1330   1.445       .  S
C1324      C1325   1.402       .  A
C1325      C1326   1.405       .  A
C1325      H1328   1.085       .  S
C1326      C1329   1.442       .  S
C1329      N1331   1.157       .  T
C1330      N1332   1.157       .  T
C1333      C1334   1.402       .  A
C1333      C1338   1.409       .  A
C1334      C1335   1.401       .  A
C1334      H1339   1.086       .  S
C1335      C1336   1.416       .  A
C1335      C1342   1.445       .  S
C1336      C1337   1.408       .  A
C1337      C1338   1.405       .  A
C1337      H1340   1.084       .  S
C1338      C1341   1.443       .  S
C1341      N1343   1.157       .  T
C1342      N1344   1.157       .  T
C1345      C1346   1.409       .  A
C1345      C1350   1.419       .  A
C1346      C1347   1.404       .  A
C1346      H1351   1.084       .  S
C1347      C1348   1.411       .  A
C1347      C1354   1.444   1_556  S
C1348      C1349   1.402       .  A
C1349      C1350   1.400       .  A
C1349      H1352   1.085       .  S
C1350      C1353   1.445       .  S
C1353      N1355   1.157       .  T
C1354      N1356   1.157       .  T
C1357      C1358   1.409       .  A
C1357      C1362   1.422       .  A
C1358      C1359   1.405       .  A
C1358      H1363   1.084       .  S
C1359      C1360   1.408       .  A
C1359      C1366   1.443       .  S
C1360      C1361   1.396       .  A
C1361      C1362   1.390       .  A
C1361      H1364   1.086       .  S
C1362      C1365   1.447   1_455  S
C1365      N1367   1.158       .  T
C1366      N1368   1.157       .  T
C1369      C1370   1.404       .  A
C1369      C1374   1.415       .  A
C1370      C1371   1.399       .  A
C1370      H1375   1.085       .  S
C1371      C1372   1.411       .  A
C1371      C1378   1.445       .  S
C1372      C1373   1.402       .  A
C1373      C1374   1.404       .  A
C1373      H1376   1.085       .  S
C1374      C1377   1.444       .  S
C1377      N1379   1.157       .  T
C1378      N1380   1.157       .  T
C1381      C1382   1.404   1_655  A
C1381      C1386   1.408       .  A
C1382      C1383   1.402       .  A
C1382      H1387   1.085       .  S
C1383      C1384   1.415       .  A
C1383      C1390   1.444       .  S
C1384      C1385   1.408   1_455  A
C1385      C1386   1.402       .  A
C1385      H1388   1.085       .  S
C1386      C1389   1.444       .  S
C1389      N1391   1.157       .  T
C1390      N1392   1.157       .  T
C1393      C1394   1.405   1_455  A
C1393      C1398   1.411       .  A
C1394      C1395   1.400       .  A
C1394      H1399   1.085       .  S
C1395      C1396   1.415       .  A
C1395      C1402   1.444       .  S
C1396      C1397   1.408   1_655  A
C1397      C1398   1.403       .  A
C1397      H1400   1.085       .  S
C1398      C1401   1.444       .  S
C1401      N1403   1.157       .  T
C1402      N1404   1.157       .  T
C1405      C1406   1.403       .  A
C1405      C1410   1.417       .  A
C1406      C1407   1.401       .  A
C1406      H1411   1.085       .  S
C1407      C1408   1.413       .  A
C1407      C1414   1.444       .  S
C1408      C1409   1.402       .  A
C1409      C1410   1.406       .  A
C1409      H1412   1.084       .  S
C1410      C1413   1.444       .  S
C1413      N1415   1.157       .  T
C1414      N1416   1.157       .  T
C1417      C1418   1.411       .  A
C1417      C1422   1.419       .  A
C1418      C1419   1.406       .  A
C1418      H1423   1.084       .  S
C1419      C1420   1.409       .  A
C1419      C1426   1.443       .  S
C1420      C1421   1.402       .  A
C1421      C1422   1.400       .  A
C1421      H1424   1.086       .  S
C1422      C1425   1.445       .  S
C1425      N1427   1.157       .  T
C1426      N1428   1.157       .  T
C1429      C1430   1.408       .  A
C1429      C1434   1.413       .  A
C1430      C1431   1.398       .  A
C1430      H1435   1.085       .  S
C1431      C1432   1.405       .  A
C1431      C1438   1.444       .  S
C1432      C1433   1.402       .  A
C1433      C1434   1.398       .  A
C1433      H1436   1.085       .  S
C1434      C1437   1.444       .  S
C1437      N1439   1.157       .  T
C1438      N1440   1.157       .  T
C1441      C1442   1.404       .  A
C1441      C1446   1.406       .  A
C1442      C1443   1.391       .  A
C1442      H1447   1.085       .  S
C1443      C1444   1.406       .  A
C1443      C1450   1.442       .  S
C1444      C1445   1.411       .  A
C1445      C1446   1.404       .  A
C1445      H1448   1.085       .  S
C1446      C1449   1.443       .  S
C1449      N1451   1.157       .  T
C1450      N1452   1.156       .  T
C1453      C1454   1.406       .  A
C1453      C1458   1.406       .  A
C1454      C1455   1.403       .  A
C1454      H1459   1.085       .  S
C1455      C1456   1.412       .  A
C1455      C1462   1.443       .  S
C1456      C1457   1.410       .  A
C1457      C1458   1.394       .  A
C1457      H1460   1.085       .  S
C1458      C1461   1.445       .  S
C1461      N1463   1.157       .  T
C1462      N1464   1.157       .  T
C1465      C1466   1.403       .  A
C1465      C1470   1.410       .  A
C1466      C1467   1.407       .  A
C1466      H1471   1.085       .  S
C1467      C1468   1.419       .  A
C1467      C1474   1.444       .  S
C1468      C1469   1.406       .  A
C1469      C1470   1.392       .  A
C1469      H1472   1.084       .  S
C1470      C1473   1.446       .  S
C1473      N1475   1.157       .  T
C1474      N1476   1.158   1_655  T
C1477      C1478   1.410       .  A
C1477      C1482   1.415       .  A
C1478      C1479   1.399       .  A
C1478      H1483   1.084       .  S
C1479      C1480   1.404       .  A
C1479      C1486   1.444       .  S
C1480      C1481   1.402       .  A
C1481      C1482   1.398       .  A
C1481      H1484   1.085       .  S
C1482      C1485   1.444       .  S
C1485      N1487   1.157       .  T
C1486      N1488   1.157       .  T
C1489      C1490   1.402       .  A
C1489      C1494   1.418       .  A
C1490      C1491   1.396       .  A
C1490      H1495   1.085       .  S
C1491      C1492   1.410       .  A
C1491      C1498   1.444       .  S
C1492      C1493   1.399       .  A
C1493      C1494   1.403       .  A
C1493      H1496   1.084       .  S
C1494      C1497   1.444       .  S
C1497      N1499   1.157       .  T
C1498      N1500   1.157       .  T
C1501      C1502   1.407       .  A
C1501      C1506   1.409       .  A
C1502      C1503   1.412       .  A
C1502      H1507   1.084       .  S
C1503      C1504   1.418       .  A
C1503      C1510   1.442       .  S
C1504      C1505   1.412       .  A
C1505      C1506   1.398       .  A
C1505      H1508   1.084       .  S
C1506      C1509   1.445       .  S
C1509      N1511   1.157       .  T
C1510      N1512   1.157       .  T
C1513      C1514   1.403       .  A
C1513      C1518   1.416       .  A
C1514      C1515   1.402       .  A
C1514      H1519   1.084       .  S
C1515      C1516   1.411       .  A
C1515      C1522   1.444       .  S
C1516      C1517   1.398       .  A
C1517      C1518   1.395       .  A
C1517      H1520   1.086       .  S
C1518      C1521   1.446       .  S
C1521      N1523   1.157       .  T
C1522      N1524   1.157   1_565  T
C1525      C1526   1.404       .  A
C1525      C1530   1.407       .  A
C1526      C1527   1.397       .  A
C1526      H1531   1.085       .  S
C1527      C1528   1.416       .  A
C1527      C1534   1.444       .  S
C1528      C1529   1.411       .  A
C1529      C1530   1.398       .  A
C1529      H1532   1.084       .  S
C1530      C1533   1.445       .  S
C1533      N1535   1.157       .  T
C1534      N1536   1.157       .  T
C1537      C1538   1.397       .  A
C1537      C1542   1.409       .  A
C1538      C1539   1.394       .  A
C1538      H1543   1.086       .  S
C1539      C1540   1.423       .  A
C1539      C1546   1.446   1_655  S
C1540      C1541   1.408       .  A
C1541      C1542   1.406       .  A
C1541      H1544   1.084       .  S
C1542      C1545   1.443       .  S
C1545      N1547   1.157       .  T
C1546      N1548   1.158       .  T
C1549      C1550   1.403       .  A
C1549      C1554   1.416       .  A
C1550      C1551   1.401       .  A
C1550      H1555   1.085       .  S
C1551      C1552   1.422       .  A
C1551      C1558   1.445       .  S
C1552      C1553   1.409       .  A
C1553      C1554   1.408       .  A
C1553      H1556   1.084       .  S
C1554      C1557   1.444       .  S
C1557      N1559   1.157       .  T
C1558      N1560   1.158       .  T
C1561      C1562   1.409       .  A
C1561      C1566   1.422       .  A
C1562      C1563   1.405       .  A
C1562      H1567   1.083       .  S
C1563      C1564   1.409       .  A
C1563      C1570   1.443       .  S
C1564      C1565   1.397       .  A
C1565      C1566   1.393       .  A
C1565      H1568   1.086       .  S
C1566      C1569   1.446       .  S
C1569      N1571   1.158       .  T
C1570      N1572   1.157       .  T
C1573      C1574   1.404       .  A
C1573      C1578   1.409       .  A
C1574      C1575   1.393       .  A
C1574      H1579   1.085       .  S
C1575      C1576   1.407       .  A
C1575      C1582   1.445       .  S
C1576      C1577   1.406       .  A
C1577      C1578   1.404       .  A
C1577      H1580   1.085       .  S
C1578      C1581   1.443       .  S
C1581      N1583   1.157       .  T
C1582      N1584   1.157       .  T
C1585      C1586   1.405       .  A
C1585      C1590   1.417       .  A
C1586      C1587   1.404       .  A
C1586      H1591   1.085       .  S
C1587      C1588   1.416       .  A
C1587      C1594   1.444       .  S
C1588      C1589   1.404       .  A
C1589      C1590   1.403       .  A
C1589      H1592   1.085       .  S
C1590      C1593   1.444       .  S
C1593      N1595   1.157   1_565  T
C1594      N1596   1.157       .  T
C1597      C1598   1.409       .  A
C1597      C1602   1.422   1_565  A
C1598      C1599   1.400       .  A
C1598      H1603   1.084       .  S
C1599      C1600   1.408       .  A
C1599      C1606   1.445       .  S
C1600      C1601   1.401       .  A
C1601      C1602   1.406   1_565  A
C1601      H1604   1.085   1_565  S
C1602      C1605   1.444       .  S
C1605      N1607   1.158       .  T
C1606      N1608   1.157       .  T
C1609      C1610   1.401       .  A
C1609      C1614   1.406       .  A
C1610      C1611   1.403       .  A
C1610      H1615   1.085       .  S
C1611      C1612   1.415       .  A
C1611      C1618   1.442       .  S
C1612      C1613   1.407       .  A
C1613      C1614   1.395       .  A
C1613      H1616   1.085       .  S
C1614      C1617   1.445       .  S
C1617      N1619   1.157       .  T
C1618      N1620   1.157       .  T
C1621      C1622   1.406       .  A
C1621      C1626   1.418       .  A
C1622      C1623   1.405       .  A
C1622      H1627   1.085   1_545  S
C1623      C1624   1.416       .  A
C1623      C1630   1.444       .  S
C1624      C1625   1.406       .  A
C1625      C1626   1.403       .  A
C1625      H1628   1.085       .  S
C1626      C1629   1.444       .  S
C1629      N1631   1.158       .  T
C1630      N1632   1.157   1_545  T
C1633      C1634   1.397       .  A
C1633      C1638   1.413       .  A
C1634      C1635   1.402       .  A
C1634      H1639   1.085       .  S
C1635      C1636   1.422       .  A
C1635      C1642   1.444       .  S
C1636      C1637   1.405       .  A
C1637      C1638   1.401       .  A
C1637      H1640   1.084       .  S
C1638      C1641   1.444       .  S
C1641      N1643   1.157       .  T
C1642      N1644   1.157       .  T
C1645      C1646   1.410   1_565  A
C1645      C1650   1.415       .  A
C1646      C1647   1.406       .  A
C1646      H1651   1.084       .  S
C1647      C1648   1.411   1_545  A
C1647      C1654   1.443   1_556  S
C1648      C1649   1.404       .  A
C1649      C1650   1.396       .  A
C1649      H1652   1.084       .  S
C1650      C1653   1.445       .  S
C1653      N1655   1.157       .  T
C1654      N1656   1.157       .  T
C1657      C1658   1.410       .  A
C1657      C1662   1.421       .  A
C1658      C1659   1.406       .  A
C1658      H1663   1.082       .  S
C1659      C1660   1.411       .  A
C1659      C1666   1.444       .  S
C1660      C1661   1.401       .  A
C1661      C1662   1.393       .  A
C1661      H1664   1.086       .  S
C1662      C1665   1.445       .  S
C1665      N1667   1.158       .  T
C1666      N1668   1.157       .  T
C1669      C1670   1.409       .  A
C1669      C1674   1.414       .  A
C1670      C1671   1.398       .  A
C1670      H1675   1.085       .  S
C1671      C1672   1.405       .  A
C1671      C1678   1.441       .  S
C1672      C1673   1.402       .  A
C1673      C1674   1.398       .  A
C1673      H1676   1.084       .  S
C1674      C1677   1.444       .  S
C1677      N1679   1.157       .  T
C1678      N1680   1.157       .  T
C1681      C1682   1.396       .  A
C1681      C1686   1.412       .  A
C1682      C1683   1.401       .  A
C1682      H1687   1.085       .  S
C1683      C1684   1.425       .  A
C1683      C1690   1.445       .  S
C1684      C1685   1.407       .  A
C1685      C1686   1.402       .  A
C1685      H1688   1.083       .  S
C1686      C1689   1.444       .  S
C1689      N1691   1.157       .  T
C1690      N1692   1.157       .  T
C1693      C1694   1.400       .  A
C1693      C1698   1.412       .  A
C1694      C1695   1.401       .  A
C1694      H1699   1.085       .  S
C1695      C1696   1.417       .  A
C1695      C1702   1.443       .  S
C1696      C1697   1.407   1_455  A
C1697      C1698   1.404   1_655  A
C1697      H1700   1.085       .  S
C1698      C1701   1.444   1_455  S
C1701      N1703   1.157       .  T
C1702      N1704   1.157       .  T
C1705      C1706   1.410       .  A
C1705      C1710   1.420       .  A
C1706      C1707   1.404       .  A
C1706      H1711   1.084       .  S
C1707      C1708   1.408       .  A
C1707      C1714   1.443       .  S
C1708      C1709   1.398       .  A
C1709      C1710   1.393       .  A
C1709      H1712   1.086       .  S
C1710      C1713   1.445       .  S
C1713      N1715   1.157       .  T
C1714      N1716   1.157       .  T
C1717      C1718   1.407       .  A
C1717      C1722   1.415       .  A
C1718      C1719   1.403       .  A
C1718      H1723   1.083       .  S
C1719      C1720   1.416       .  A
C1719      C1726   1.444       .  S
C1720      C1721   1.409       .  A
C1721      C1722   1.407       .  A
C1721      H1724   1.084       .  S
C1722      C1725   1.443       .  S
C1725      N1727   1.157       .  T
C1726      N1728   1.157       .  T
C1729      C1730   1.405       .  A
C1729      C1734   1.408       .  A
C1730      C1731   1.398       .  A
C1730      H1735   1.085       .  S
C1731      C1732   1.408       .  A
C1731      C1738   1.444       .  S
C1732      C1733   1.408       .  A
C1733      C1734   1.406       .  A
C1733      H1736   1.084       .  S
C1734      C1737   1.443       .  S
C1737      N1739   1.157       .  T
C1738      N1740   1.157       .  T
C1741      C1742   1.400       .  A
C1741      C1746   1.410       .  A
C1742      C1743   1.390       .  A
C1742      H1747   1.086       .  S
C1743      C1744   1.422       .  A
C1743      C1750   1.446       .  S
C1744      C1745   1.411       .  A
C1745      C1746   1.407       .  A
C1745      H1748   1.084       .  S
C1746      C1749   1.443       .  S
C1749      N1751   1.157       .  T
C1750      N1752   1.157       .  T
C1753      C1754   1.408       .  A
C1753      C1758   1.420       .  A
C1754      C1755   1.405       .  A
C1754      H1759   1.084       .  S
C1755      C1756   1.417       .  A
C1755      C1762   1.444       .  S
C1756      C1757   1.405       .  A
C1757      C1758   1.407       .  A
C1757      H1760   1.085       .  S
C1758      C1761   1.444       .  S
C1761      N1763   1.157       .  T
C1762      N1764   1.157       .  T
C1765      C1766   1.408       .  A
C1765      C1770   1.422       .  A
C1766      C1767   1.404       .  A
C1766      H1771   1.084       .  S
C1767      C1768   1.410       .  A
C1767      C1774   1.444       .  S
C1768      C1769   1.399       .  A
C1769      C1770   1.403       .  A
C1769      H1772   1.085       .  S
C1770      C1773   1.444       .  S
C1773      N1775   1.157       .  T
C1774      N1776   1.157       .  T
C1777      C1778   1.394       .  A
C1777      C1782   1.408       .  A
C1778      C1779   1.393       .  A
C1778      H1783   1.086       .  S
C1779      C1780   1.423       .  A
C1779      C1786   1.446       .  S
C1780      C1781   1.407       .  A
C1781      C1782   1.403       .  A
C1781      H1784   1.084       .  S
C1782      C1785   1.443       .  S
C1785      N1787   1.157       .  T
C1786      N1788   1.158       .  T
C1789      C1790   1.403       .  A
C1789      C1794   1.407       .  A
C1790      C1791   1.406       .  A
C1790      H1795   1.085       .  S
C1791      C1792   1.416       .  A
C1791      C1798   1.443       .  S
C1792      C1793   1.409       .  A
C1793      C1794   1.393       .  A
C1793      H1796   1.085       .  S
C1794      C1797   1.446       .  S
C1797      N1799   1.157       .  T
C1798      N1800   1.157   1_565  T
C1801      C1802   1.405       .  A
C1801      C1806   1.417       .  A
C1802      C1803   1.402       .  A
C1802      H1807   1.085       .  S
C1803      C1804   1.413       .  A
C1803      C1810   1.443       .  S
C1804      C1805   1.404       .  A
C1805      C1806   1.408       .  A
C1805      H1808   1.085       .  S
C1806      C1809   1.444       .  S
C1809      N1811   1.157       .  T
C1810      N1812   1.157       .  T
C1813      C1814   1.398   1_556  A
C1813      C1818   1.409       .  A
C1814      C1815   1.400       .  A
C1814      H1819   1.085       .  S
C1815      C1816   1.421       .  A
C1815      C1822   1.445       .  S
C1816      C1817   1.407       .  A
C1817      C1818   1.401   1_554  A
C1817      H1820   1.084       .  S
C1818      C1821   1.444       .  S
C1821      N1823   1.157       .  T
C1822      N1824   1.157       .  T
C1825      C1826   1.405       .  A
C1825      C1830   1.409       .  A
C1826      C1827   1.406       .  A
C1826      H1831   1.085       .  S
C1827      C1828   1.414       .  A
C1827      C1834   1.443       .  S
C1828      C1829   1.408       .  A
C1829      C1830   1.397       .  A
C1829      H1832   1.085       .  S
C1830      C1833   1.445   1_545  S
C1833      N1835   1.157       .  T
C1834      N1836   1.157       .  T
C1837      C1838   1.400       .  A
C1837      C1842   1.411       .  A
C1838      C1839   1.403       .  A
C1838      H1843   1.085       .  S
C1839      C1840   1.420       .  A
C1839      C1846   1.444       .  S
C1840      C1841   1.406       .  A
C1841      C1842   1.402       .  A
C1841      H1844   1.084   1_545  S
C1842      C1845   1.444       .  S
C1845      N1847   1.157   1_545  T
C1846      N1848   1.157       .  T
C1849      C1850   1.405       .  A
C1849      C1854   1.420       .  A
C1850      C1851   1.403       .  A
C1850      H1855   1.085       .  S
C1851      C1852   1.414       .  A
C1851      C1858   1.444       .  S
C1852      C1853   1.404       .  A
C1853      C1854   1.411       .  A
C1853      H1856   1.084       .  S
C1854      C1857   1.443       .  S
C1857      N1859   1.157       .  T
C1858      N1860   1.157       .  T
C1861      C1862   1.410       .  A
C1861      C1866   1.419       .  A
C1862      C1863   1.405       .  A
C1862      H1867   1.085       .  S
C1863      C1864   1.414       .  A
C1863      C1870   1.443       .  S
C1864      C1865   1.403       .  A
C1865      C1866   1.394       .  A
C1865      H1868   1.085       .  S
C1866      C1869   1.445       .  S
C1869      N1871   1.157       .  T
C1870      N1872   1.157       .  T
C1873      C1874   1.406       .  A
C1873      C1878   1.419       .  A
C1874      C1875   1.400       .  A
C1874      H1879   1.085       .  S
C1875      C1876   1.411       .  A
C1875      C1882   1.445       .  S
C1876      C1877   1.401       .  A
C1877      C1878   1.405       .  A
C1877      H1880   1.085       .  S
C1878      C1881   1.444       .  S
C1881      N1883   1.157       .  T
C1882      N1884   1.157       .  T
C1885      C1886   1.410       .  A
C1885      C1890   1.417       .  A
C1886      C1887   1.402       .  A
C1886      H1891   1.084       .  S
C1887      C1888   1.406       .  A
C1887      C1894   1.444       .  S
C1888      C1889   1.403       .  A
C1889      C1890   1.404       .  A
C1889      H1892   1.085       .  S
C1890      C1893   1.444       .  S
C1893      N1895   1.157       .  T
C1894      N1896   1.157       .  T
C1897      C1898   1.397       .  A
C1897      C1902   1.409       .  A
C1898      C1899   1.401       .  A
C1898      H1903   1.084       .  S
C1899      C1900   1.421       .  A
C1899      C1906   1.445       .  S
C1900      C1901   1.405       .  A
C1901      C1902   1.397       .  A
C1901      H1904   1.083       .  S
C1902      C1905   1.444       .  S
C1905      N1907   1.157       .  T
C1906      N1908   1.157       .  T
C1909      C1910   1.401       .  A
C1909      C1914   1.407       .  A
C1910      C1911   1.395       .  A
C1910      H1915   1.082       .  S
C1911      C1912   1.407       .  A
C1911      C1918   1.444       .  S
C1912      C1913   1.407       .  A
C1913      C1914   1.404       .  A
C1913      H1916   1.085       .  S
C1914      C1917   1.443       .  S
C1917      N1919   1.157       .  T
C1918      N1920   1.157       .  T
C1921      C1922   1.403       .  A
C1921      C1926   1.416       .  A
C1922      C1923   1.397       .  A
C1922      H1927   1.085       .  S
C1923      C1924   1.412       .  A
C1923      C1930   1.444       .  S
C1924      C1925   1.404       .  A
C1925      C1926   1.408       .  A
C1925      H1928   1.084       .  S
C1926      C1929   1.443       .  S
C1929      N1931   1.157       .  T
C1930      N1932   1.157       .  T
C1933      C1934   1.409       .  A
C1933      C1938   1.419       .  A
C1934      C1935   1.400       .  A
C1934      H1939   1.084       .  S
C1935      C1936   1.406       .  A
C1935      C1942   1.444       .  S
C1936      C1937   1.401       .  A
C1937      C1938   1.403       .  A
C1937      H1940   1.085       .  S
C1938      C1941   1.444   1_655  S
C1941      N1943   1.157       .  T
C1942      N1944   1.157       .  T
C1945      C1946   1.403       .  A
C1945      C1950   1.405       .  A
C1946      C1947   1.406       .  A
C1946      H1951   1.085       .  S
C1947      C1948   1.415       .  A
C1947      C1954   1.443       .  S
C1948      C1949   1.408       .  A
C1949      C1950   1.393       .  A
C1949      H1952   1.085       .  S
C1950      C1953   1.446       .  S
C1953      N1955   1.157       .  T
C1954      N1956   1.157       .  T
C1957      C1958   1.401       .  A
C1957      C1962   1.408       .  A
C1958      C1959   1.402       .  A
C1958      H1963   1.085       .  S
C1959      C1960   1.420       .  A
C1959      C1966   1.444   1_655  S
C1960      C1961   1.408       .  A
C1961      C1962   1.399       .  A
C1961      H1964   1.084       .  S
C1962      C1965   1.444       .  S
C1965      N1967   1.157       .  T
C1966      N1968   1.157       .  T
C1969      C1970   1.407       .  A
C1969      C1974   1.416       .  A
C1970      C1971   1.404       .  A
C1970      H1975   1.085   1_655  S
C1971      C1972   1.416       .  A
C1971      C1978   1.444   1_655  S
C1972      C1973   1.406       .  A
C1973      C1974   1.400       .  A
C1973      H1976   1.085       .  S
C1974      C1977   1.444       .  S
C1977      N1979   1.157       .  T
C1978      N1980   1.157       .  T
C1981      C1982   1.402       .  A
C1981      C1986   1.402       .  A
C1982      C1983   1.402       .  A
C1982      H1987   1.086       .  S
C1983      C1984   1.420       .  A
C1983      C1990   1.443       .  S
C1984      C1985   1.415       .  A
C1985      C1986   1.397       .  A
C1985      H1988   1.081       .  S
C1986      C1989   1.443       .  S
C1989      N1991   1.157       .  T
C1990      N1992   1.157       .  T
C1993      C1994   1.405       .  A
C1993      C1998   1.415       .  A
C1994      C1995   1.406       .  A
C1994      H1999   1.085       .  S
C1995      C1996   1.415       .  A
C1995      C2002   1.444   1_455  S
C1996      C1997   1.406       .  A
C1997      C1998   1.407       .  A
C1997      H2000   1.085       .  S
C1998      C2001   1.444       .  S
C2001      N2003   1.157       .  T
C2002      N2004   1.157       .  T
C2005      C2006   1.406       .  A
C2005      C2010   1.421       .  A
C2006      C2007   1.408       .  A
C2006      H2011   1.084       .  S
C2007      C2008   1.415       .  A
C2007      C2014   1.443   1_455  S
C2008      C2009   1.398       .  A
C2009      C2010   1.400       .  A
C2009      H2012   1.085       .  S
C2010      C2013   1.445       .  S
C2013      N2015   1.157       .  T
C2014      N2016   1.157       .  T
