geometry optimzed in LAMMPS
_audit_creation_date              2020-11-30 
_audit_creation_method            'lammps2cif' 
_symmetry_space_group_name_H-M    'P1' 
_symmetry_Int_Tables_number       1 
_symmetry_cell_setting            triclinic 
loop_ 
_symmetry_equiv_pos_as_xyz 
  x,y,z 
_cell_length_a                    64.01162469 
_cell_length_b                    64.66286447311131 
_cell_length_c                    38.48920292117413 
_cell_angle_alpha                 89.11690688208563 
_cell_angle_beta                  90.71294599846281 
_cell_angle_gamma                 121.26203818230064 
loop_ 
_atom_site_label 
_atom_site_type_symbol 
_atom_site_fract_x 
_atom_site_fract_y 
_atom_site_fract_z 
_atom_site_charge 
In1        In  0.44341452  0.32298922  0.43605829     1.36900
C2          C  0.40792844  0.33387756  0.43566904     0.77200
O3          O  0.46201658  0.33749988  0.48757832    -0.61200
O4          O  0.48038245  0.35687347  0.44215025    -0.52100
C5          C  0.43436358  0.28165488  0.46750579     0.69900
O6          O  0.41815205  0.28717891  0.46436251    -0.47000
C7          C  0.46153156  0.32712827  0.37224469     0.74600
O8          O  0.40804439  0.31941212  0.41404980    -0.58900
O9          O  0.46252776  0.34452326  0.38808476    -0.48900
O10         O  0.42511525  0.34161403  0.45742791    -0.55300
C11         C  0.48082953  0.35540864  0.47475648     0.84800
O12         O  0.45414409  0.29633314  0.45263904    -0.57200
O13         O  0.44935145  0.30698182  0.38780428    -0.60500
In14       In  0.45144626  0.12817601  0.65885114     1.36900
C15         C  0.41676833  0.08189553  0.67078393     0.77200
O16         O  0.46077012  0.11295736  0.61349756    -0.61200
O17         O  0.48938710  0.13667865  0.64717100    -0.52100
C18         C  0.43932478  0.15604858  0.62129247     0.69900
O19         O  0.43634050  0.15353106  0.65383600    -0.47000
C20         C  0.47378065  0.14871928  0.71888974     0.74600
O21         O  0.41182170  0.09689374  0.65760275    -0.58900
O22         O  0.48208454  0.15829896  0.68955121    -0.48900
O23         O  0.43886506  0.09096154  0.67915722    -0.55300
C24         C  0.48326681  0.12386519  0.62034485     0.84800
O25         O  0.44767274  0.14398718  0.60877638    -0.57200
O26         O  0.45299710  0.12958414  0.71766196    -0.60500
In27       In  0.65053105  0.51982419  0.65963628     1.36900
C28         C  0.63958188  0.55466058  0.66175798     0.77200
O29         O  0.61128959  0.49101005  0.65001102    -0.61200
O30         O  0.63788453  0.49523200  0.61366229    -0.52100
C31         C  0.69305719  0.53634765  0.62586427     0.69900
O32         O  0.68985123  0.52830360  0.65667329    -0.47000
C33         C  0.64555070  0.49670627  0.72056445     0.74600
O34         O  0.62721731  0.53510326  0.64572074    -0.58900
O35         O  0.64510652  0.48797539  0.69136864    -0.48900
O36         O  0.65817273  0.55681762  0.67709182    -0.55300
C37         C  0.61566226  0.48398882  0.62211054     0.84800
O38         O  0.67525005  0.53729452  0.61366322    -0.57200
O39         O  0.64997435  0.51813816  0.71899661    -0.60500
In40       In  0.84715261  0.52654055  0.43592849     1.36900
C41         C  0.89473247  0.56096848  0.43054289     0.77200
O42         O  0.83419090  0.50013003  0.48053933    -0.61200
O43         O  0.85884656  0.49954185  0.44488374    -0.52100
C44         C  0.82186767  0.54278209  0.47001866     0.69900
O45         O  0.84094801  0.54413781  0.48179019    -0.47000
C46         C  0.82614099  0.50203410  0.37735509     0.74600
O47         O  0.87869336  0.56116693  0.41125505    -0.58900
O48         O  0.81832951  0.49392694  0.40738710    -0.48900
O49         O  0.88612647  0.54405426  0.45262126    -0.55300
C50         C  0.84637153  0.49071123  0.47210111     0.84800
O51         O  0.81680662  0.53507801  0.43931535    -0.57200
O52         O  0.84415538  0.52351076  0.37690936    -0.60500
In53       In  0.65096271  0.12880851  0.44142057     1.36900
C54         C  0.64892348  0.08632851  0.44023355     0.77200
O55         O  0.63426177  0.14513029  0.47315676    -0.61200
O56         O  0.61144052  0.10876962  0.45763088    -0.52100
C57         C  0.69170604  0.15787072  0.47829881     0.69900
O58         O  0.67135969  0.14284846  0.49151046    -0.47000
C59         C  0.64177062  0.14488113  0.38173233     0.74600
O60         O  0.64190998  0.09347741  0.46523152    -0.58900
O61         O  0.63053888  0.12290275  0.39067198    -0.48900
O62         O  0.65859940  0.10169917  0.41582649    -0.55300
C63         C  0.61323708  0.12643394  0.47368982     0.84800
O64         O  0.69182718  0.15733986  0.44542433    -0.57200
O65         O  0.65914098  0.15839530  0.40186919    -0.60500
In66       In  0.84784611  0.33092052  0.66755684     1.36900
C67         C  0.89445209  0.34671128  0.68529073     0.77200
O68         O  0.85396659  0.34815733  0.61391909    -0.61200
O69         O  0.84508131  0.36328428  0.65521893    -0.52100
C70         C  0.81912222  0.28895300  0.63385130     0.69900
O71         O  0.81201224  0.29582308  0.65915098    -0.47000
C72         C  0.82642575  0.33080108  0.72693582     0.74600
O73         O  0.87900173  0.32454604  0.68053733    -0.58900
O74         O  0.81958995  0.33370577  0.69736451    -0.48900
O75         O  0.88592759  0.36029023  0.68123140    -0.55300
C76         C  0.84967877  0.36413489  0.62343088     0.84800
O77         O  0.84158475  0.30252043  0.62757781    -0.57200
O78         O  0.84332754  0.32614184  0.72619023    -0.60500
C79         C  0.58089255  0.22133230  0.93361589    -0.02800
C80         C  0.59733699  0.22008624  0.18172398    -0.02800
C81         C  0.61293161  0.38811531  0.93184782    -0.02800
C82         C  0.56882969  0.35106769  0.16414229    -0.02800
C83         C  0.74054637  0.34104975  0.93817940    -0.02800
C84         C  0.74037131  0.38880349  0.17593726    -0.02800
In85       In  0.12374425  0.46643357  0.66513784     1.36900
C86         C  0.07731698  0.43697614  0.68520203     0.77200
O87         O  0.13590976  0.46896199  0.72141268    -0.61200
O88         O  0.14303908  0.50079280  0.69428995    -0.52100
C89         C  0.14995276  0.45197911  0.63017698     0.69900
O90         O  0.12993979  0.44900302  0.61941146    -0.47000
C91         C  0.12325757  0.49675361  0.61818115     0.74600
O92         O  0.09107007  0.42884483  0.67886086    -0.58900
O93         O  0.14134735  0.50226432  0.63768476    -0.48900
O94         O  0.08777181  0.45960182  0.68274909    -0.55300
C95         C  0.14458102  0.49154195  0.72246346     0.84800
O96         O  0.15548218  0.46019524  0.66056530    -0.57200
O97         O  0.10566363  0.47526482  0.62176344    -0.60500
In98       In  0.31785980  0.46598233  0.43898592     1.36900
C99         C  0.27587800  0.45436670  0.47134771     0.77200
O100        O  0.33284237  0.49963668  0.47150420    -0.61200
O101        O  0.35400459  0.48333582  0.46654360    -0.52100
C102        C  0.32180127  0.42652877  0.43493908     0.69900
O103        O  0.31666229  0.43510212  0.40874427    -0.47000
C104        C  0.32944601  0.48859798  0.37678198     0.74600
O105        O  0.28887224  0.44570919  0.47966478    -0.58900
O106        O  0.34440748  0.49396353  0.40152180    -0.48900
O107        O  0.28326232  0.46766503  0.44452909    -0.55300
C108        C  0.35227490  0.50015941  0.47945259     0.84800
O109        O  0.32360600  0.43737102  0.46267901    -0.57200
O110        O  0.30817428  0.47099376  0.38343286    -0.60500
In111      In  0.32489606  0.85823288  0.64744695     1.36900
C112        C  0.28168642  0.82621148  0.61794317     0.77200
O113        O  0.33704506  0.84381321  0.60431903    -0.61200
O114        O  0.36214026  0.87884999  0.62305850    -0.52100
C115        C  0.33064798  0.90190791  0.65739380     0.69900
O116        O  0.32516005  0.88668797  0.68175980    -0.47000
C117        C  0.33721976  0.84465968  0.70687603     0.74600
O118        O  0.29179109  0.84874835  0.61358685    -0.58900
O119        O  0.35026323  0.85157694  0.68000670    -0.48900
O120        O  0.29245063  0.82027093  0.63992499    -0.55300
C121        C  0.35809714  0.86238968  0.60207528     0.84800
O122        O  0.33153293  0.89411680  0.62800937    -0.57200
O123        O  0.31736910  0.84434870  0.70341947    -0.60500
In124      In  0.12351550  0.65876188  0.42569734     1.36900
C125        C  0.15706982  0.70096660  0.45463178     0.77200
O126        O  0.13325887  0.64635317  0.47514891    -0.61200
O127        O  0.10695301  0.61978332  0.44156677    -0.52100
C128        C  0.07819639  0.65136371  0.42062562     0.69900
O129        O  0.08834115  0.65147679  0.44889109    -0.47000
C130        C  0.13970324  0.65096078  0.36608464     0.74600
O131        O  0.13501581  0.69494501  0.45060791    -0.58900
O132        O  0.13029020  0.63572228  0.39041365    -0.48900
O133        O  0.16213173  0.68640492  0.44134189    -0.55300
C134        C  0.11916078  0.62416219  0.46923873     0.84800
O135        O  0.09184651  0.65663917  0.39448347    -0.57200
O136        O  0.14072974  0.67069692  0.37179318    -0.60500
In137      In  0.52774779  0.86449070  0.43204816     1.36900
C138        C  0.56873315  0.90844940  0.43085587     0.77200
O139        O  0.51867020  0.84068025  0.38453462    -0.61200
O140        O  0.50820922  0.86679614  0.38488244    -0.52100
C141        C  0.53558052  0.83405772  0.47070249     0.69900
O142        O  0.54458673  0.84114953  0.44072859    -0.47000
C143        C  0.49088146  0.86555613  0.46125247     0.74600
O144        O  0.55898847  0.89693230  0.45847029    -0.58900
O145        O  0.48909965  0.84633064  0.45068641    -0.48900
O146        O  0.55854216  0.89677203  0.40368674    -0.55300
C147        C  0.50789266  0.84985529  0.36877475     0.84800
O148        O  0.52287785  0.84256836  0.48041506    -0.57200
O149        O  0.51163402  0.88431951  0.45685558    -0.60500
In150      In  0.52778262  0.66568829  0.65586719     1.36900
C151        C  0.54018378  0.70619270  0.61930150     0.77200
O152        O  0.50589135  0.62792402  0.63549662    -0.61200
O153        O  0.49203828  0.65112024  0.62725146    -0.52100
C154        C  0.56547251  0.65841449  0.65960339     0.69900
O155        O  0.55552402  0.65916010  0.63167629    -0.47000
C156        C  0.50647765  0.65994282  0.71753438     0.74600
O157        O  0.54112100  0.70589624  0.65209671    -0.58900
O158        O  0.50283075  0.64265444  0.69863005    -0.48900
O159        O  0.53424209  0.68629033  0.60570662    -0.55300
C160        C  0.48921481  0.63054601  0.62255328     0.84800
O161        O  0.55779543  0.66379627  0.68586555    -0.57200
O162        O  0.52152763  0.68061203  0.70513424    -0.60500
C163        C  0.40638720  0.64054350  0.92993911    -0.02800
C164        C  0.36064027  0.59338383  0.16375114    -0.02800
C165        C  0.23321611  0.63482014  0.17160570    -0.02800
C166        C  0.23276831  0.60470944  0.92087877    -0.02800
C167        C  0.36261573  0.76645203  0.91580080    -0.02800
C168        C  0.39553424  0.76530962  0.16572345    -0.02800
C169        C  0.39973604  0.80149880  0.08318651    -0.11200
C170        C  0.40059528  0.78670689  0.05761267     0.05900
C171        C  0.40800545  0.77049141  0.06744706    -0.10000
C172        C  0.41006706  0.76593436  0.10250527    -0.11600
C173        C  0.40344421  0.77658545  0.12854376    -0.01400
C174        C  0.40215408  0.79707144  0.11853519    -0.10500
C175        C  0.38911813  0.78400614  0.02282916     0.06000
H176        H  0.41009972  0.75975931  0.04801481     0.07900
H177        H  0.41482464  0.75252625  0.10869527     0.11300
H178        H  0.39903107  0.80709607  0.13797118     0.11600
H179        H  0.39476217  0.81468320  0.07623328     0.07900
C180        C  0.36922710  0.76126523  0.01411083    -0.11200
C181        C  0.35952812  0.75661090  0.98063179    -0.10500
C182        C  0.36902499  0.77460912  0.95425203    -0.01400
C183        C  0.38845251  0.79793376  0.96366835    -0.11600
C184        C  0.39822558  0.80261517  0.99770251    -0.10000
H185        H  0.36177878  0.74661046  0.03304500     0.07900
H186        H  0.34541763  0.73820332  0.97483779     0.11600
H187        H  0.39725059  0.81217766  0.94435405     0.11300
H188        H  0.41370568  0.82031156  0.00381636     0.07900
C189        C  0.25810699  0.67248391  0.93608683    -0.11200
C190        C  0.26743171  0.68282138  0.90327322     0.05900
C191        C  0.26091459  0.66686969  0.87503204    -0.10000
C192        C  0.24817726  0.64175590  0.88029338    -0.11600
C193        C  0.23995665  0.63136670  0.91358318    -0.01400
C194        C  0.24487602  0.64753383  0.94114146    -0.10500
C195        C  0.28741351  0.70907453  0.90047377     0.06000
H196        H  0.26673342  0.67344776  0.84888616     0.07900
H197        H  0.24609798  0.63046430  0.85846635     0.11300
H198        H  0.24112752  0.64149537  0.96784299     0.11600
H199        H  0.26279719  0.68333109  0.95915089     0.07900
C200        C  0.29291266  0.72516070  0.92836396    -0.11200
C201        C  0.31641648  0.74549380  0.93235512    -0.10500
C202        C  0.33478983  0.75022855  0.90831983    -0.01400
C203        C  0.32724776  0.73791381  0.87638476    -0.11600
C204        C  0.30415550  0.71726793  0.87283765    -0.10000
H205        H  0.27976970  0.72139284  0.94852230     0.07900
H206        H  0.32043784  0.75636182  0.95534905     0.11600
H207        H  0.34034404  0.74200814  0.85596528     0.11300
H208        H  0.30091809  0.70677077  0.84973684     0.07900
C209        C  0.33276130  0.73220908  0.20937678    -0.11200
C210        C  0.31696985  0.73076828  0.18236490     0.05900
C211        C  0.32758419  0.74622493  0.15353646    -0.10000
C212        C  0.35278353  0.75882295  0.14860569    -0.11600
C213        C  0.36878682  0.75833176  0.17388366    -0.01400
C214        C  0.35814371  0.74620862  0.20551213    -0.10500
C215        C  0.29078567  0.71028961  0.18104883     0.06000
H216        H  0.31651780  0.74725042  0.13296696     0.07900
H217        H  0.35870348  0.76689668  0.12330345     0.11300
H218        H  0.36946348  0.74529385  0.22589278     0.11600
H219        H  0.32593002  0.72101564  0.23245899     0.07900
C220        C  0.27897836  0.69647392  0.21093026    -0.11200
C221        C  0.25881129  0.67299543  0.20787470    -0.10500
C222        C  0.24979884  0.66274889  0.17483037    -0.01400
C223        C  0.25796228  0.67863615  0.14603553    -0.11600
C224        C  0.27866065  0.70172151  0.14884536    -0.10000
H225        H  0.28622974  0.70286828  0.23664156     0.07900
H226        H  0.25196752  0.66197396  0.23118914     0.11600
H227        H  0.24986427  0.67291535  0.12057154     0.11300
H228        H  0.28591709  0.71168020  0.12488430     0.07900
C229        C  0.19743343  0.60323176  0.08640108    -0.11200
C230        C  0.21682834  0.60779494  0.06452296     0.05900
C231        C  0.24081027  0.62247907  0.07663031    -0.10000
C232        C  0.24543696  0.63168125  0.11004019    -0.11600
C233        C  0.22630429  0.62676228  0.13310293    -0.01400
C234        C  0.20206422  0.61226738  0.12053483    -0.10500
C235        C  0.21308337  0.59792246  0.02885176     0.06000
H236        H  0.25619078  0.62680107  0.06014680     0.07900
H237        H  0.26433349  0.64244029  0.11829686     0.11300
H238        H  0.18658064  0.60710972  0.13709508     0.11600
H239        H  0.17873097  0.59198435  0.07753932     0.07900
C240        C  0.22708040  0.58825428  0.01784634    -0.11200
C241        C  0.23074836  0.58683747  0.98253823    -0.10500
C242        C  0.22139281  0.59617554  0.95760181    -0.01400
C243        C  0.20268082  0.60007225  0.96846781    -0.11600
C244        C  0.19915962  0.60178012  0.00403066    -0.10000
H245        H  0.23688122  0.58373072  0.03661381     0.07900
H246        H  0.24276700  0.58055020  0.97524063     0.11600
H247        H  0.19362332  0.60548692  0.94970532     0.11300
H248        H  0.18755936  0.60847895  0.01183503     0.07900
C249        C  0.25037847  0.58602334  0.17910570    -0.11200
C250        C  0.27594505  0.60030864  0.17981955     0.05900
C251        C  0.28719039  0.62505948  0.18584874    -0.10000
C252        C  0.27346880  0.63601783  0.18742979    -0.11600
C253        C  0.24770530  0.62248149  0.18310480    -0.01400
C254        C  0.23636446  0.59699657  0.18096581    -0.10500
C255        C  0.29173063  0.59087235  0.17062722     0.06000
H256        H  0.30695961  0.63630741  0.18680797     0.07900
H257        H  0.28392221  0.65548008  0.18835156     0.11300
H258        H  0.21676269  0.58587110  0.17740169     0.11600
H259        H  0.24138437  0.56674946  0.17473232     0.07900
C260        C  0.29695133  0.57795080  0.19498407    -0.11200
C261        C  0.31750673  0.57591934  0.19088013    -0.10500
C262        C  0.33349685  0.58682234  0.16209492    -0.01400
C263        C  0.32648860  0.59793606  0.13637135    -0.11600
C264        C  0.30591150  0.59979566  0.14052006    -0.10000
H265        H  0.28651368  0.57142223  0.21877468     0.07900
H266        H  0.32194089  0.56802608  0.21250154     0.11600
H267        H  0.33832924  0.60746495  0.11461423     0.11300
H268        H  0.30234832  0.61023056  0.12166942     0.07900
C269        C  0.37567368  0.65388835  0.20463080    -0.11200
C270        C  0.38575645  0.66984289  0.17626914     0.05900
C271        C  0.39165170  0.66205065  0.14639222    -0.10000
C272        C  0.38610628  0.63830705  0.14369145    -0.11600
C273        C  0.37447283  0.62117310  0.17107311    -0.01400
C274        C  0.36982855  0.62982158  0.20192917    -0.10500
C275        C  0.38766561  0.69363526  0.17553337     0.06000
H276        H  0.39930337  0.67406802  0.12409556     0.07900
H277        H  0.38893117  0.63330664  0.11836752     0.11300
H278        H  0.35982370  0.61745633  0.22303412     0.11600
H279        H  0.37066974  0.65951267  0.22786693     0.07900
C280        C  0.37572882  0.69878649  0.14912344    -0.11200
C281        C  0.37843460  0.72157013  0.14644845    -0.10500
C282        C  0.39406320  0.74046283  0.16915594    -0.01400
C283        C  0.40484571  0.73448809  0.19698231    -0.11600
C284        C  0.40175290  0.71142899  0.19995200    -0.10000
H285        H  0.36417433  0.68504390  0.13051281     0.07900
H286        H  0.36844862  0.72462654  0.12613321     0.11600
H287        H  0.41515271  0.74715988  0.21731340     0.11300
H288        H  0.41062195  0.70758084  0.22105837     0.07900
C289        C  0.42064208  0.70422901  0.90284440    -0.11200
C290        C  0.40800152  0.70837081  0.92845696     0.05900
C291        C  0.40013046  0.69350041  0.95816759    -0.10000
C292        C  0.40229526  0.67315889  0.96042504    -0.11600
C293        C  0.41298826  0.66725563  0.93338051    -0.01400
C294        C  0.42312651  0.68397748  0.90517531    -0.10500
C295        C  0.39751935  0.72361364  0.92073181     0.06000
H296        H  0.39002768  0.69625242  0.97809782     0.07900
H297        H  0.39322425  0.66066660  0.98179239     0.11300
H298        H  0.43057630  0.68029397  0.88271315     0.11600
H299        H  0.42638818  0.71520598  0.87935988     0.07900
C300        C  0.41184696  0.74870658  0.91510784    -0.11200
C301        C  0.40063328  0.76242850  0.91075658    -0.10500
C302        C  0.37487434  0.75123279  0.91100572    -0.01400
C303        C  0.36102435  0.72572223  0.91548161    -0.11600
C304        C  0.37212287  0.71231128  0.91986640    -0.10000
H305        H  0.43159006  0.75775432  0.91567084     0.07900
H306        H  0.41205570  0.78193112  0.90884464     0.11600
H307        H  0.34141978  0.71577208  0.91843260     0.11300
H308        H  0.36070368  0.69292782  0.92397124     0.07900
C309        C  0.40665602  0.60224400  0.09388563    -0.11200
C310        C  0.39235296  0.59594756  0.06354763     0.05900
C311        C  0.36676389  0.58256983  0.06684528    -0.10000
C312        C  0.35582840  0.57872666  0.09955853    -0.11600
C313        C  0.37034451  0.58883961  0.12956961    -0.01400
C314        C  0.39568674  0.59792816  0.12662401    -0.10500
C315        C  0.40352424  0.60688320  0.02927323     0.06000
H316        H  0.35520708  0.57691653  0.04390831     0.07900
H317        H  0.33612649  0.56942327  0.10069996     0.11300
H318        H  0.40737830  0.60477188  0.14935127     0.11600
H319        H  0.42640174  0.61206338  0.09218273     0.07900
C320        C  0.41851637  0.63216209  0.02603400    -0.11200
C321        C  0.42254088  0.64350128  0.99341147    -0.10500
C322        C  0.41102211  0.62974324  0.96351129    -0.01400
C323        C  0.40085438  0.60443650  0.96617118    -0.11600
C324        C  0.39614060  0.59304685  0.99889092    -0.10000
H325        H  0.42520605  0.64332181  0.04897297     0.07900
H326        H  0.43294920  0.66304920  0.99228963     0.11600
H327        H  0.39318650  0.59326687  0.94337690     0.11300
H328        H  0.38518651  0.57349367  0.00053868     0.07900
C329        C  0.34567307  0.62643427  0.88633399    -0.11200
C330        C  0.32892468  0.61442589  0.91319724     0.05900
C331        C  0.33647923  0.60762189  0.94315836    -0.10000
C332        C  0.36073266  0.61423175  0.94759035    -0.11600
C333        C  0.37844480  0.62727755  0.92154685    -0.01400
C334        C  0.37013018  0.63295013  0.89055610    -0.10500
C335        C  0.30482902  0.61230249  0.91315543     0.06000
H336        H  0.32386700  0.59864485  0.96443448     0.07900
H337        H  0.36549688  0.61085436  0.97312325     0.11300
H338        H  0.38295827  0.64393767  0.87045513     0.11600
H339        H  0.34027984  0.63230474  0.86321633     0.07900
C340        C  0.28754214  0.60032871  0.88679309    -0.11200
C341        C  0.26430195  0.59743289  0.88892527    -0.10500
C342        C  0.25777477  0.60628265  0.91777371    -0.01400
C343        C  0.27623665  0.61987644  0.94251159    -0.11600
C344        C  0.29909606  0.62238811  0.94062422    -0.10000
H345        H  0.29191693  0.59299405  0.86484646     0.07900
H346        H  0.25183171  0.58871111  0.86747956     0.11600
H347        H  0.27280852  0.62831811  0.96396397     0.11300
H348        H  0.31247863  0.63239964  0.96071644     0.07900
C349        C  0.48502143  0.67100822  0.80311590    -0.11200
C350        C  0.46718711  0.64729240  0.81331841     0.05900
C351        C  0.46316646  0.62795919  0.79237836    -0.10000
C352        C  0.47627819  0.63219588  0.76168328    -0.11600
C353        C  0.49368115  0.65588154  0.75103526    -0.01400
C354        C  0.49809123  0.67527021  0.77219081    -0.10500
C355        C  0.45196318  0.64280303  0.84467910     0.06000
H356        H  0.44978572  0.60949775  0.79970419     0.07900
H357        H  0.47252428  0.61686165  0.74600100     0.11300
H358        H  0.51137891  0.69370706  0.76461103     0.11600
H359        H  0.48834554  0.68630852  0.81853318     0.07900
C360        C  0.46243173  0.65539005  0.87556556    -0.11200
C361        C  0.44766443  0.65286766  0.90375045    -0.10500
C362        C  0.42193457  0.63846463  0.90133278    -0.01400
C363        C  0.41181649  0.62388674  0.87171003    -0.11600
C364        C  0.42660211  0.62633924  0.84357511    -0.10000
H365        H  0.48200838  0.66760667  0.87764525     0.07900
H366        H  0.45621333  0.66360157  0.92668563     0.11600
H367        H  0.39242528  0.61106749  0.86949586     0.11300
H368        H  0.41800392  0.61597797  0.82037876     0.07900
C369        C  0.45609186  0.80256771  0.21551465    -0.11200
C370        C  0.44941878  0.81126474  0.24384418     0.05900
C371        C  0.42599922  0.80817073  0.24397868    -0.10000
C372        C  0.40890812  0.79483275  0.21795482    -0.11600
C373        C  0.41472875  0.78395091  0.19126512    -0.01400
C374        C  0.43919747  0.78967555  0.18913593    -0.10500
C375        C  0.46627216  0.82239847  0.27400483     0.06000
H376        H  0.42047662  0.81510412  0.26514763     0.07900
H377        H  0.39098063  0.79251825  0.21967917     0.11300
H378        H  0.44468124  0.78244467  0.16831237     0.11600
H379        H  0.47423439  0.80526492  0.21418292     0.07900
C380        C  0.47830981  0.81131928  0.28886599    -0.11200
C381        C  0.49248645  0.82057355  0.31911163    -0.10500
C382        C  0.49501225  0.84117254  0.33498178    -0.01400
C383        C  0.48365050  0.85269129  0.31942770    -0.11600
C384        C  0.46938298  0.84336974  0.28939190    -0.10000
H385        H  0.47603310  0.79497255  0.27777994     0.07900
H386        H  0.50091054  0.81124888  0.33058351     0.11600
H387        H  0.48530483  0.86865008  0.33097162     0.11300
H388        H  0.46053781  0.85241646  0.27837160     0.07900
C389        C  0.55551237  0.79072588  0.50234573    -0.11200
C390        C  0.54470350  0.78389550  0.53548803     0.05900
C391        C  0.53141958  0.79422282  0.54715852    -0.10000
C392        C  0.52871225  0.81058136  0.52617952    -0.11600
C393        C  0.53923115  0.81714109  0.49293039    -0.01400
C394        C  0.55281913  0.80716119  0.48133777    -0.10500
C395        C  0.54613760  0.76521458  0.55711532     0.06000
H396        H  0.52248785  0.78915147  0.57219112     0.07900
H397        H  0.51808894  0.81790564  0.53590469     0.11300
H398        H  0.56121447  0.81191665  0.45592207     0.11600
H399        H  0.56609584  0.78336954  0.49261713     0.07900
C400        C  0.54421588  0.74477383  0.54147598    -0.11200
C401        C  0.54328225  0.72614390  0.56173298    -0.10500
C402        C  0.54430465  0.72742378  0.59820159    -0.01400
C403        C  0.54718413  0.74821795  0.61393209    -0.11600
C404        C  0.54806172  0.76688507  0.59363288    -0.10000
H405        H  0.54240183  0.74265477  0.51355780     0.07900
H406        H  0.54099180  0.71033303  0.54879599     0.11600
H407        H  0.54801499  0.74973350  0.64196198     0.11300
H408        H  0.54993675  0.78251169  0.60658186     0.07900
C409        C  0.19327542  0.61820185  0.25335871    -0.11200
C410        C  0.18107630  0.63076611  0.24693403     0.05900
C411        C  0.18234949  0.64023767  0.21342186    -0.10000
C412        C  0.19703918  0.63892220  0.18794011    -0.11600
C413        C  0.21109444  0.62822556  0.19514294    -0.01400
C414        C  0.20798774  0.61686989  0.22792441    -0.10500
C415        C  0.16872760  0.63547113  0.27584001     0.06000
H416        H  0.17279608  0.64959898  0.20731231     0.07900
H417        H  0.19904434  0.64809100  0.16331287     0.11300
H418        H  0.21850723  0.60879253  0.23547026     0.11600
H419        H  0.19285623  0.61078882  0.27893266     0.07900
C420        C  0.15574979  0.61770291  0.30141522    -0.11200
C421        C  0.14601556  0.62275080  0.33014987    -0.10500
C422        C  0.14894190  0.64570450  0.33418979    -0.01400
C423        C  0.16135291  0.66335674  0.30827177    -0.11600
C424        C  0.17113464  0.65829502  0.27940638    -0.10000
H425        H  0.15325702  0.59987463  0.29936205     0.07900
H426        H  0.13642806  0.60867643  0.34954550     0.11600
H427        H  0.16395955  0.68121163  0.31068865     0.11300
H428        H  0.18131793  0.67254488  0.26048088     0.07900
C429        C  0.43066440  0.84435568  0.50558711    -0.11200
C430        C  0.43224181  0.86634020  0.51318950     0.05900
C431        C  0.45297115  0.88811152  0.50209521    -0.10000
C432        C  0.47193683  0.88789593  0.48477141    -0.11600
C433        C  0.47044081  0.86590990  0.47788889    -0.01400
C434        C  0.44947383  0.84415027  0.48794178    -0.10500
C435        C  0.41284952  0.86645442  0.53398482     0.06000
H436        H  0.45460742  0.90534310  0.50692385     0.07900
H437        H  0.48783681  0.90492753  0.47696714     0.11300
H438        H  0.44789364  0.82694433  0.48301871     0.11600
H439        H  0.41523327  0.82726354  0.51422079     0.07900
C440        C  0.38822309  0.84788351  0.53041814    -0.11200
C441        C  0.37034334  0.84680108  0.55213792    -0.10500
C442        C  0.37664354  0.86441876  0.57760467    -0.01400
C443        C  0.40100968  0.88349724  0.58036299    -0.11600
C444        C  0.41895152  0.88444844  0.55891517    -0.10000
H445        H  0.38275941  0.83402533  0.51101366     0.07900
H446        H  0.35162080  0.83202577  0.54924681     0.11600
H447        H  0.40634669  0.89730334  0.59983661     0.11300
H448        H  0.43773311  0.89882572  0.56276537     0.07900
C449        C  0.33747832  0.82293160  0.79941985    -0.11200
C450        C  0.35964568  0.82314349  0.80064325     0.05900
C451        C  0.37449528  0.83117828  0.77088767    -0.10000
C452        C  0.36721216  0.83826578  0.74074382    -0.11600
C453        C  0.34490369  0.83761249  0.73941192    -0.01400
C454        C  0.33023574  0.83010818  0.76923873    -0.10500
C455        C  0.36634160  0.81354858  0.83191478     0.06000
H456        H  0.39180620  0.83197999  0.77079761     0.07900
H457        H  0.37905351  0.84413039  0.71828927     0.11300
H458        H  0.31297512  0.82943567  0.76908552     0.11600
H459        H  0.32525584  0.81647612  0.82144060     0.07900
C460        C  0.35951601  0.81594954  0.86550527    -0.11200
C461        C  0.36157467  0.80314959  0.89371371    -0.10500
C462        C  0.37063205  0.78754708  0.88944176    -0.01400
C463        C  0.37998942  0.78735370  0.85648248    -0.11600
C464        C  0.37773691  0.80003141  0.82819247    -0.10000
H465        H  0.35134974  0.82674311  0.86976220     0.07900
H466        H  0.35390067  0.80366244  0.91837464     0.11600
H467        H  0.38661371  0.77537203  0.85128330     0.11300
H468        H  0.38319060  0.79758093  0.80282540     0.07900
C469        C  0.23120164  0.79913000  0.54947849    -0.11200
C470        C  0.22499413  0.77484594  0.54958155     0.05900
C471        C  0.23593839  0.76726095  0.57449907    -0.10000
C472        C  0.25326778  0.78370506  0.59805754    -0.11600
C473        C  0.26039568  0.80825635  0.59694392    -0.01400
C474        C  0.24889429  0.81572153  0.57270840    -0.10500
C475        C  0.20807781  0.75758643  0.52293341     0.06000
H476        H  0.23132986  0.74860301  0.57536501     0.07900
H477        H  0.26183761  0.77736972  0.61622698     0.11300
H478        H  0.25410546  0.83453610  0.57101030     0.11600
H479        H  0.22309498  0.80546368  0.53049776     0.07900
C480        C  0.18462569  0.75389965  0.51734842    -0.11200
C481        C  0.16825492  0.73621499  0.49397681    -0.10500
C482        C  0.17516389  0.72212008  0.47541025    -0.01400
C483        C  0.19903238  0.72670012  0.47988552    -0.11600
C484        C  0.21520806  0.74408656  0.50347399    -0.10000
H485        H  0.17867294  0.76406839  0.53201006     0.07900
H486        H  0.14995391  0.73302509  0.49129768     0.11600
H487        H  0.20496909  0.71621374  0.46601681     0.11300
H488        H  0.23328014  0.74678962  0.50689546     0.07900
C489        C  0.41245902  0.53775548  0.52651697    -0.11200
C490        C  0.40917416  0.55505105  0.54322943     0.05900
C491        C  0.38673344  0.55394131  0.53895926    -0.10000
C492        C  0.36817439  0.53611984  0.51823918    -0.11600
C493        C  0.37160392  0.51893620  0.50162263    -0.01400
C494        C  0.39385732  0.51985645  0.50611826    -0.10500
C495        C  0.42923515  0.57429897  0.56454817     0.06000
H496        H  0.38340433  0.56670686  0.55187020     0.07900
H497        H  0.35111791  0.53572269  0.51533584     0.11300
H498        H  0.39703436  0.50689262  0.49347180     0.11600
H499        H  0.42960892  0.53828532  0.52861578     0.07900
C500        C  0.44478283  0.56936290  0.58442853    -0.11200
C501        C  0.46418505  0.58762851  0.60338466    -0.10500
C502        C  0.46830438  0.61116417  0.60326664    -0.01400
C503        C  0.45263034  0.61610916  0.58395133    -0.11600
C504        C  0.43337138  0.59790480  0.56465027    -0.10000
H505        H  0.44190435  0.55132610  0.58552786     0.07900
H506        H  0.47594348  0.58330818  0.61822149     0.11600
H507        H  0.45553312  0.63416860  0.58324215     0.11300
H508        H  0.42206148  0.60248714  0.54920922     0.07900
C509        C  0.32641435  0.51119697  0.28585732    -0.11200
C510        C  0.35059721  0.53071747  0.28106297     0.05900
C511        C  0.36770891  0.53551444  0.30773540    -0.10000
C512        C  0.36079890  0.52159362  0.33838359    -0.11600
C513        C  0.33660871  0.50236979  0.34329598    -0.01400
C514        C  0.31953880  0.49718101  0.31651635    -0.10500
C515        C  0.35745115  0.54660135  0.24923175     0.06000
H516        H  0.38653358  0.55005065  0.30501149     0.07900
H517        H  0.37445359  0.52605348  0.35845787     0.11300
H518        H  0.30074907  0.48258332  0.31953274     0.11600
H519        H  0.31251855  0.50713372  0.26634845     0.07900
C520        C  0.34619712  0.53700264  0.21705564    -0.11200
C521        C  0.34942035  0.55225559  0.18882611    -0.10500
C522        C  0.36350794  0.57767540  0.19204765    -0.01400
C523        C  0.37761614  0.58702521  0.22254587    -0.11600
C524        C  0.37424848  0.57173822  0.25098517    -0.10000
H525        H  0.33409028  0.51769351  0.21398614     0.07900
H526        H  0.33911247  0.54425275  0.16523034     0.11600
H527        H  0.39033948  0.60619596  0.22543137     0.11300
H528        H  0.38385571  0.57989708  0.27493135     0.07900
C529        C  0.10611196  0.56291944  0.50059616    -0.11200
C530        C  0.11794708  0.56844202  0.53312063     0.05900
C531        C  0.12891680  0.59231059  0.54529161    -0.10000
C532        C  0.12893437  0.61037343  0.52484431    -0.11600
C533        C  0.11764848  0.60488268  0.49203771    -0.01400
C534        C  0.10586085  0.58092533  0.48037604    -0.10500
C535        C  0.11950991  0.54963451  0.55380595     0.06000
H536        H  0.13764582  0.59710767  0.57058257     0.07900
H537        H  0.13796768  0.62867780  0.53456225     0.11300
H538        H  0.09708885  0.57623492  0.45509015     0.11600
H539        H  0.09770764  0.54485259  0.49019003     0.07900
C540        C  0.10003812  0.52539374  0.55423699    -0.11200
C541        C  0.10151897  0.50796070  0.57428927    -0.10500
C542        C  0.12244569  0.51442906  0.59438753    -0.01400
C543        C  0.14210370  0.53844729  0.59336132    -0.11600
C544        C  0.14068642  0.55582567  0.57325165    -0.10000
H545        H  0.08337715  0.51998326  0.53982379     0.07900
H546        H  0.08606249  0.48955834  0.57472058     0.11600
H547        H  0.15849307  0.54392301  0.60854714     0.11300
H548        H  0.15628142  0.57413514  0.57287743     0.07900
C549        C  0.19496442  0.54539677  0.87114521    -0.11200
C550        C  0.18482706  0.55196918  0.84377248     0.05900
C551        C  0.18695064  0.57473371  0.84473057    -0.10000
C552        C  0.20088736  0.59139484  0.87056399    -0.11600
C553        C  0.21365676  0.58594511  0.89555467    -0.01400
C554        C  0.20877583  0.56199041  0.89699979    -0.10500
C555        C  0.17385927  0.53603081  0.81307773     0.06000
H556        H  0.17828947  0.57990418  0.82495528     0.07900
H557        H  0.20200511  0.60865213  0.87018872     0.11300
H558        H  0.21730998  0.55670226  0.91681970     0.11600
H559        H  0.19348293  0.52793951  0.87157502     0.07900
C560        C  0.17842087  0.54630474  0.77954626    -0.11200
C561        C  0.16918180  0.53169052  0.75033990    -0.10500
C562        C  0.15532148  0.50639480  0.75379905    -0.01400
C563        C  0.15091064  0.49592936  0.78715247    -0.11600
C564        C  0.16002808  0.51063011  0.81657580    -0.10000
H565        H  0.18952605  0.56571204  0.77577088     0.07900
H566        H  0.17296910  0.54025062  0.72490349     0.11600
H567        H  0.14005035  0.47646694  0.79049144     0.11300
H568        H  0.15606059  0.50213233  0.84203966     0.07900
C569        C  0.17806698  0.44360732  0.54959078    -0.11200
C570        C  0.20009025  0.44648924  0.56235975     0.05900
C571        C  0.20462841  0.44939672  0.59843080    -0.10000
C572        C  0.18796516  0.45027802  0.62086803    -0.11600
C573        C  0.16625483  0.44796714  0.60779781    -0.01400
C574        C  0.16135682  0.44423914  0.57200192    -0.10500
C575        C  0.21850078  0.44722807  0.53796782     0.06000
H576        H  0.22148537  0.45187836  0.60916937     0.07900
H577        H  0.19235244  0.45337716  0.64827882     0.11300
H578        H  0.14488949  0.44257390  0.56105234     0.11600
H579        H  0.17378016  0.44099003  0.52212022     0.07900
C580        C  0.23181554  0.43614001  0.54686887    -0.11200
C581        C  0.24969506  0.43764634  0.52451165    -0.10500
C582        C  0.25487618  0.45041669  0.49275010    -0.01400
C583        C  0.24125744  0.46108806  0.48344893    -0.11600
C584        C  0.22326178  0.45946927  0.50573208    -0.10000
H585        H  0.22844443  0.42631064  0.57120783     0.07900
H586        H  0.25991857  0.42928841  0.53253584     0.11600
H587        H  0.24493957  0.47122084  0.45933376     0.11300
H588        H  0.21358574  0.46847209  0.49816122     0.07900
C589        C  0.73847632  0.35520037  0.03379165    -0.11200
C590        C  0.76225209  0.37416069  0.04063718     0.05900
C591        C  0.78046231  0.38030735  0.01567995    -0.10000
C592        C  0.77443977  0.36848756  0.98331711    -0.11600
C593        C  0.75007318  0.35015929  0.97555805    -0.01400
C594        C  0.73251123  0.34346337  0.00207675    -0.10500
C595        C  0.76641661  0.38778389  0.07320123     0.06000
H596        H  0.79897695  0.39497629  0.02051942     0.07900
H597        H  0.78855911  0.37485291  0.96386299     0.11300
H598        H  0.71350739  0.32994759  0.99740274     0.11600
H599        H  0.72413956  0.35006225  0.05270646     0.07900
C600        C  0.75348084  0.39957789  0.07794266    -0.11200
C601        C  0.74792957  0.40333706  0.11133355    -0.10500
C602        C  0.75414562  0.39418733  0.14071428     0.09400
C603        C  0.77199262  0.38785359  0.13591772    -0.11600
C604        C  0.77739525  0.38379445  0.10225731    -0.10000
H605        H  0.74555451  0.40365887  0.05580236     0.07900
H606        H  0.73683424  0.41137831  0.11355460     0.11600
H607        H  0.77868499  0.38238178  0.15804111     0.11300
H608        H  0.78786782  0.37511750  0.09922221     0.07900
C609        C  0.63574215  0.38297332  0.13588451    -0.11200
C610        C  0.64813344  0.38789947  0.16765397     0.05900
C611        C  0.63564976  0.38706067  0.19799132    -0.10000
C612        C  0.61049211  0.37863457  0.19685525    -0.11600
C613        C  0.59703748  0.36953645  0.16562567    -0.01400
C614        C  0.61071641  0.37326390  0.13494288    -0.10500
C615        C  0.67257907  0.39037825  0.16886902     0.06000
H616        H  0.64484128  0.39128132  0.22295861     0.07900
H617        H  0.60168789  0.37764873  0.22100245     0.11300
H618        H  0.60197104  0.36685224  0.10998377     0.11600
H619        H  0.64500215  0.38455275  0.11173593     0.07900
C620        C  0.67717387  0.37602771  0.14697284    -0.11200
C621        C  0.69927746  0.37690035  0.14844419    -0.10500
C622        C  0.71783210  0.39187953  0.17226738    -0.01400
C623        C  0.71297357  0.40609604  0.19463049    -0.11600
C624        C  0.69077322  0.40552335  0.19262064    -0.10000
H625        H  0.66330630  0.36333189  0.12926423     0.07900
H626        H  0.70163715  0.36506176  0.13148660     0.11600
H627        H  0.72557398  0.41693244  0.21487875     0.11300
H628        H  0.68768453  0.41660096  0.21013300     0.07900
C629        C  0.67596791  0.39622023  0.91179914    -0.11200
C630        C  0.67736487  0.38159644  0.93773384     0.05900
C631        C  0.66041411  0.37304159  0.96487520    -0.10000
C632        C  0.64122386  0.37739018  0.96466257    -0.11600
C633        C  0.63839120  0.39073859  0.93746158    -0.01400
C634        C  0.65669122  0.40058328  0.91141891    -0.10500
C635        C  0.69364705  0.37188503  0.93377786     0.06000
H636        H  0.66108289  0.36155879  0.98510778     0.07900
H637        H  0.62735830  0.36851771  0.98444147     0.11300
H638        H  0.65519138  0.40977337  0.88874806     0.11600
H639        H  0.68861608  0.40260343  0.89024083     0.07900
C640        C  0.68327202  0.34681453  0.93320138    -0.11200
C641        C  0.69791818  0.33679481  0.93186774    -0.10500
C642        C  0.72376762  0.35155388  0.93074258    -0.01400
C643        C  0.73396589  0.37694221  0.93024636    -0.11600
C644        C  0.71909003  0.38697082  0.93133750    -0.10000
H645        H  0.66362674  0.33482495  0.93488528     0.07900
H646        H  0.68851229  0.31737220  0.93445440     0.11600
H647        H  0.75361666  0.38901817  0.93060577     0.11300
H648        H  0.72747201  0.40644047  0.93179121     0.07900
C649        C  0.56606351  0.38326778  0.99707744    -0.11200
C650        C  0.57923059  0.38841756  0.02831207     0.05900
C651        C  0.60480799  0.40008354  0.02705447    -0.10000
C652        C  0.61663093  0.40304843  0.99540761    -0.11600
C653        C  0.60290783  0.39375824  0.96457052    -0.01400
C654        C  0.57803917  0.38696365  0.96529092    -0.10500
C655        C  0.56681614  0.37735734  0.06160350     0.06000
H656        H  0.61542368  0.40479606  0.05088723     0.07900
H657        H  0.63620219  0.41082899  0.99579279     0.11300
H658        H  0.56715107  0.38107560  0.94172512     0.11600
H659        H  0.54635823  0.37466869  0.99740008     0.07900
C660        C  0.55631892  0.35234618  0.06650728    -0.11200
C661        C  0.55313838  0.34243616  0.10003546    -0.10500
C662        C  0.56039007  0.35748134  0.12952678    -0.01400
C663        C  0.56683984  0.38183689  0.12404920    -0.11600
C664        C  0.57062773  0.39177930  0.09051289    -0.10000
H665        H  0.55330729  0.34089902  0.04442689     0.07900
H666        H  0.54797505  0.32371680  0.10197500     0.11600
H667        H  0.57247050  0.39404618  0.14582750     0.11300
H668        H  0.57871638  0.41112697  0.08731876     0.07900
C669        C  0.64574132  0.28841772  0.19503810    -0.11200
C670        C  0.66764006  0.28853803  0.19585694     0.05900
C671        C  0.66687737  0.26661756  0.19202758    -0.10000
C672        C  0.64443524  0.24490333  0.18768492    -0.11600
C673        C  0.62217887  0.24461699  0.18555210    -0.01400
C674        C  0.62352361  0.26700542  0.18977812    -0.10500
C675        C  0.69101402  0.31207664  0.19688978     0.06000
H676        H  0.68363854  0.26632641  0.19232517     0.07900
H677        H  0.64439440  0.22821760  0.18530185     0.11300
H678        H  0.60758051  0.26851107  0.18923799     0.11600
H679        H  0.64587523  0.30516856  0.19735957     0.07900
C680        C  0.70710860  0.31902499  0.16895572    -0.11200
C681        C  0.72509515  0.34331681  0.16372263    -0.10500
C682        C  0.72802084  0.36151734  0.18694525    -0.01400
C683        C  0.71344286  0.35355062  0.21729116    -0.11600
C684        C  0.69500508  0.32931579  0.22187857    -0.10000
H685        H  0.70411050  0.30607193  0.14905793     0.07900
H686        H  0.73432524  0.34745980  0.13916455     0.11600
H687        H  0.71444743  0.36659031  0.23559868     0.11300
H688        H  0.68269866  0.32434608  0.24368189     0.07900
C689        C  0.55554810  0.24361705  0.20971472    -0.11200
C690        C  0.55376261  0.25377474  0.17810200     0.05900
C691        C  0.55946175  0.24668335  0.14748035    -0.10000
C692        C  0.57100751  0.23350249  0.14870274    -0.11600
C693        C  0.57595194  0.22537798  0.18065972    -0.01400
C694        C  0.56572664  0.22882746  0.21085531    -0.10500
C695        C  0.55587537  0.27759818  0.17715249     0.06000
H696        H  0.55858802  0.25457441  0.12284491     0.07900
H697        H  0.57833886  0.23220057  0.12430148     0.11300
H698        H  0.56746796  0.22227208  0.23592819     0.11600
H699        H  0.55126146  0.24897037  0.23385024     0.07900
C700        C  0.53635701  0.28082375  0.16874139    -0.11200
C701        C  0.54056151  0.30430567  0.16351058    -0.10500
C702        C  0.56452143  0.32494261  0.16487090    -0.01400
C703        C  0.58380236  0.32082091  0.17254989    -0.11600
C704        C  0.57944075  0.29780142  0.17904352    -0.10000
H705        H  0.51801596  0.26529617  0.16624318     0.07900
H706        H  0.52511340  0.30647602  0.15854895     0.11600
H707        H  0.60263152  0.33517991  0.17494324     0.11300
H708        H  0.59486049  0.29573856  0.18472801     0.07900
C709        C  0.59979704  0.28687294  0.90746797    -0.11200
C710        C  0.57865444  0.28738091  0.91433612     0.05900
C711        C  0.55761775  0.26598278  0.92553228    -0.10000
C712        C  0.55813064  0.24470703  0.93074915    -0.11600
C713        C  0.58008260  0.24471682  0.92700382    -0.01400
C714        C  0.60044801  0.26596612  0.91322710    -0.10500
C715        C  0.58010623  0.31103083  0.91335300     0.06000
H716        H  0.54092535  0.26581185  0.93059008     0.07900
H717        H  0.54163101  0.22841449  0.93912463     0.11300
H718        H  0.61722132  0.26678637  0.90661388     0.11600
H719        H  0.61633647  0.30302148  0.89878385     0.07900
C720        C  0.57290177  0.31850839  0.94237269    -0.11200
C721        C  0.58128377  0.34297154  0.94712083    -0.10500
C722        C  0.59662592  0.36081702  0.92233574    -0.01400
C723        C  0.60168552  0.35250596  0.89164140    -0.11600
C724        C  0.59342473  0.32804757  0.88713698    -0.10000
H725        H  0.56303429  0.30585859  0.96331316     0.07900
H726        H  0.57769501  0.34765029  0.97220164     0.11600
H727        H  0.61392456  0.36526021  0.87232875     0.11300
H728        H  0.59917157  0.32271920  0.86433417     0.07900
C729        C  0.57011407  0.21640411  0.03176074    -0.11200
C730        C  0.57384506  0.19740386  0.04005861     0.05900
C731        C  0.57305446  0.18247466  0.01348981    -0.10000
C732        C  0.57114686  0.18814030  0.97866557    -0.11600
C733        C  0.57075055  0.20927923  0.96969633    -0.01400
C734        C  0.56844189  0.22224113  0.99719013    -0.10500
C735        C  0.58262031  0.19647008  0.07543323     0.06000
H736        H  0.57589340  0.16768360  0.01941813     0.07900
H737        H  0.57307132  0.17773871  0.95852697     0.11300
H738        H  0.56865334  0.23885235  0.99276279     0.11600
H739        H  0.57069384  0.22813951  0.05204804     0.07900
C740        C  0.60647193  0.21431159  0.08470923    -0.11200
C741        C  0.61302259  0.21987544  0.11957795    -0.10500
C742        C  0.59562065  0.20778515  0.14627061    -0.01400
C743        C  0.57293013  0.18720167  0.13658358    -0.11600
C744        C  0.56634316  0.18190797  0.10149638    -0.10000
H745        H  0.61932751  0.22568044  0.06480594     0.07900
H746        H  0.63074784  0.23561560  0.12445387     0.11600
H747        H  0.55900921  0.17734109  0.15603140     0.11300
H748        H  0.54781532  0.16803209  0.09483300     0.07900
C749        C  0.69368649  0.27853913  0.90358468    -0.11200
C750        C  0.68580425  0.26500980  0.93450516     0.05900
C751        C  0.70117108  0.27357555  0.96384927    -0.10000
C752        C  0.72122355  0.29729520  0.96429520    -0.11600
C753        C  0.72541197  0.31298586  0.93582888    -0.01400
C754        C  0.71349038  0.30229751  0.90414859    -0.10500
C755        C  0.65923567  0.24815917  0.93904906     0.06000
H756        H  0.69595276  0.26301302  0.98772098     0.07900
H757        H  0.73172064  0.30369877  0.98805386     0.11300
H758        H  0.71718226  0.31330885  0.88094062     0.11600
H759        H  0.68248439  0.27223484  0.88033228     0.07900
C760        C  0.64761438  0.25410637  0.96406122    -0.11200
C761        C  0.62262295  0.24449187  0.96248806    -0.10500
C762        C  0.60801967  0.22818075  0.93612513    -0.01400
C763        C  0.61934170  0.21980172  0.91376997    -0.11600
C764        C  0.64486655  0.23030054  0.91454736    -0.10000
H765        H  0.65812965  0.26808122  0.98293986     0.07900
H766        H  0.61493444  0.25134939  0.98059809     0.11600
H767        H  0.60892519  0.20606251  0.89469887     0.11300
H768        H  0.65349965  0.22531708  0.89509122     0.07900
C769        C  0.95915580  0.39023982  0.71516744    -0.11200
C770        C  0.97195874  0.37966372  0.70240584     0.05900
C771        C  0.95839006  0.35647714  0.68766556    -0.10000
C772        C  0.93288186  0.34496105  0.68377086    -0.11600
C773        C  0.92055215  0.35655560  0.69412581    -0.01400
C774        C  0.93388151  0.37899451  0.71067956    -0.10500
C775        C  0.99928901  0.39403686  0.70106389     0.06000
H776        H  0.96758291  0.34780819  0.67739800     0.07900
H777        H  0.92301668  0.32764427  0.67091943     0.11300
H778        H  0.92479922  0.38817805  0.71943301     0.11600
H779        H  0.96880908  0.40771205  0.72761199     0.07900
C780        C  0.01130605  0.41891621  0.69329760    -0.11200
C781        C  0.03659100  0.43261580  0.68953848    -0.10500
C782        C  0.05080099  0.42191080  0.69281063    -0.01400
C783        C  0.03910805  0.39712393  0.70116726    -0.11600
C784        C  0.01354758  0.38330551  0.70539147    -0.10000
H785        H  0.00108726  0.42780004  0.68882992     0.07900
H786        H  0.04494383  0.45160146  0.68275329     0.11600
H787        H  0.04963701  0.38842096  0.70396953     0.11300
H788        H  0.00493628  0.36423235  0.71166552     0.07900
C789        C  0.78576218  0.33970559  0.78801342    -0.11200
C790        C  0.79778291  0.34337790  0.82030224     0.05900
C791        C  0.81902391  0.34193350  0.82158772    -0.10000
C792        C  0.82794375  0.33707355  0.79156525    -0.11600
C793        C  0.81603160  0.33380777  0.75942964    -0.01400
C794        C  0.79487490  0.33522010  0.75803644    -0.10500
C795        C  0.78751386  0.34771010  0.85239004     0.06000
H796        H  0.82904679  0.34492524  0.84567194     0.07900
H797        H  0.84450831  0.33645327  0.79334015     0.11300
H798        H  0.78527908  0.33281286  0.73365197     0.11600
H799        H  0.76900797  0.33991843  0.78580204     0.07900
C800        C  0.77409480  0.35936143  0.85022186    -0.11200
C801        C  0.76082026  0.35965395  0.87864430    -0.10500
C802        C  0.76089929  0.34872693  0.91070193    -0.01400
C803        C  0.77662526  0.33954661  0.91380809    -0.11600
C804        C  0.78942844  0.33873298  0.88506895    -0.10000
H805        H  0.77284788  0.36735454  0.82596836     0.07900
H806        H  0.74905343  0.36676673  0.87404923     0.11600
H807        H  0.77714340  0.33084228  0.93779873     0.11300
H808        H  0.79948618  0.32957889  0.88810063     0.07900
C809        C  0.62461262  0.02104654  0.46555532    -0.11200
C810        C  0.63012272  0.01187950  0.43645036     0.05900
C811        C  0.64389415  0.02813670  0.40944440    -0.10000
C812        C  0.65102232  0.05267144  0.41099184    -0.11600
C813        C  0.64459051  0.06142423  0.43961750    -0.01400
C814        C  0.63179263  0.04540456  0.46714517    -0.10500
C815        C  0.61922985  0.98516369  0.43333849     0.06000
H816        H  0.64867895  0.02179253  0.38677002     0.07900
H817        H  0.66088751  0.06459250  0.38938831     0.11300
H818        H  0.62639993  0.05147861  0.48951275     0.11600
H819        H  0.61361293  0.00916477  0.48653729     0.07900
C820        C  0.61553513  0.97073080  0.46311658    -0.11200
C821        C  0.60039891  0.94553574  0.46181753    -0.10500
C822        C  0.58892840  0.93411611  0.43060046    -0.01400
C823        C  0.59450172  0.94823406  0.40013574    -0.11600
C824        C  0.60943148  0.97350238  0.40149292    -0.10000
H825        H  0.62336143  0.97898966  0.48789843     0.07900
H826        H  0.59668694  0.93509804  0.48565015     0.11600
H827        H  0.58594218  0.93991844  0.37567125     0.11300
H828        H  0.61176711  0.98391727  0.37803139     0.07900
C829        C  0.60544659  0.14719560  0.30428732    -0.11200
C830        C  0.61690843  0.17222533  0.29775944     0.05900
C831        C  0.63743890  0.18800497  0.31804013    -0.10000
C832        C  0.64597897  0.17908044  0.34450361    -0.11600
C833        C  0.63422695  0.15412676  0.35144977    -0.01400
C834        C  0.61394418  0.13827092  0.33089422    -0.10500
C835        C  0.60789840  0.18200521  0.26969326     0.06000
H836        H  0.64704363  0.20734239  0.31332400     0.07900
H837        H  0.66157148  0.19178082  0.35993078     0.11300
H838        H  0.60434064  0.11895139  0.33579703     0.11600
H839        H  0.58955758  0.13453010  0.28932815     0.07900
C840        C  0.60070609  0.17089653  0.23710619    -0.11200
C841        C  0.59531750  0.18181491  0.20944068    -0.10500
C842        C  0.59660723  0.20423178  0.21339555    -0.01400
C843        C  0.60248324  0.21436687  0.24707257    -0.11600
C844        C  0.60792503  0.20347665  0.27456071    -0.10000
H845        H  0.60064894  0.15441034  0.23230854     0.07900
H846        H  0.59171588  0.17307981  0.18460151     0.11600
H847        H  0.60499163  0.23199039  0.25163842     0.11300
H848        H  0.61308857  0.21244066  0.29943961     0.07900
C849        C  0.75293337  0.21200519  0.50746849    -0.11200
C850        C  0.75017056  0.21062493  0.54391283     0.05900
C851        C  0.72899249  0.19068685  0.55804311    -0.10000
C852        C  0.71066978  0.17331712  0.53660346    -0.11600
C853        C  0.71288047  0.17514278  0.50023763    -0.01400
C854        C  0.73445950  0.19446053  0.48585496    -0.10500
C855        C  0.76838934  0.23024686  0.56734324     0.06000
H856        H  0.72638752  0.18859071  0.58589449     0.07900
H857        H  0.69440499  0.15863023  0.54864622     0.11300
H858        H  0.73670507  0.19643919  0.45793372     0.11600
H859        H  0.76891936  0.22712364  0.49558112     0.07900
C860        C  0.79374991  0.24220819  0.56137233    -0.11200
C861        C  0.81041007  0.26073969  0.58355666    -0.10500
C862        C  0.80210221  0.26775165  0.61219791    -0.01400
C863        C  0.77684671  0.25563499  0.61829944    -0.11600
C864        C  0.76027901  0.23727653  0.59620307    -0.10000
H865        H  0.80072085  0.23720258  0.53962869     0.07900
H866        H  0.82975883  0.26984139  0.57798048     0.11600
H867        H  0.76976494  0.26078469  0.63975646     0.11300
H868        H  0.74094910  0.22895132  0.60135403     0.07900
C869        C  0.95783775  0.60840017  0.39612411    -0.11200
C870        C  0.97319522  0.60768113  0.42209658     0.05900
C871        C  0.96227931  0.59213329  0.45081138    -0.10000
C872        C  0.93693332  0.57770795  0.45359408    -0.11600
C873        C  0.92152534  0.57822332  0.42775619    -0.01400
C874        C  0.93220199  0.59389053  0.39903026    -0.10500
C875        C  0.00048359  0.62241199  0.41974624     0.06000
H876        H  0.97338786  0.59061476  0.47094403     0.07900
H877        H  0.92937972  0.56575141  0.47594496     0.11300
H878        H  0.92079267  0.59453408  0.37855809     0.11600
H879        H  0.96563250  0.62020493  0.37368961     0.07900
C880        C  0.01277197  0.62486272  0.38841308    -0.11200
C881        C  0.03835844  0.63568480  0.38799625    -0.10500
C882        C  0.05206298  0.64413273  0.41891385    -0.01400
C883        C  0.03990727  0.64295672  0.44965053    -0.11600
C884        C  0.01455346  0.63242397  0.45001684    -0.10000
H885        H  0.00253313  0.61729492  0.36464327     0.07900
H886        H  0.04723275  0.63624042  0.36393004     0.11600
H887        H  0.04994917  0.64948074  0.47383178     0.11300
H888        H  0.00583897  0.63144813  0.47442694     0.07900
C889        C  0.83088219  0.44303147  0.54149360    -0.11200
C890        C  0.84634208  0.43446906  0.53298458     0.05900
C891        C  0.86138562  0.44411468  0.50364005    -0.10000
C892        C  0.86130380  0.46231634  0.48362304    -0.11600
C893        C  0.84610991  0.47109821  0.49254529    -0.01400
C894        C  0.83079576  0.46117915  0.52151842    -0.10500
C895        C  0.84748249  0.41634630  0.55567873     0.06000
H896        H  0.87366361  0.43803236  0.49672242     0.07900
H897        H  0.87333940  0.46972387  0.46143562     0.11300
H898        H  0.81881377  0.46753132  0.52886689     0.11600
H899        H  0.81886481  0.43570300  0.56371097     0.07900
C900        C  0.84793782  0.41868756  0.59192019    -0.11200
C901        C  0.84893196  0.40180788  0.61369644    -0.10500
C902        C  0.84961997  0.38224861  0.59977109    -0.01400
C903        C  0.84940992  0.37990739  0.56352953    -0.11600
C904        C  0.84832550  0.39683772  0.54161976    -0.10000
H905        H  0.84775247  0.43375497  0.60347846     0.07900
H906        H  0.84918569  0.40409806  0.64154790     0.11600
H907        H  0.84971980  0.36484202  0.55219918     0.11300
H908        H  0.84779998  0.39451388  0.51375508     0.07900
C909        C  0.77821045  0.41488434  0.26061081    -0.11200
C910        C  0.78631807  0.43960219  0.25696362     0.05900
C911        C  0.78299431  0.44796475  0.22468598    -0.10000
C912        C  0.76986613  0.43166298  0.19796829    -0.11600
C913        C  0.75903857  0.40644261  0.20306515    -0.01400
C914        C  0.76515610  0.39860688  0.23389318    -0.10500
C915        C  0.79670097  0.45611105  0.28739190     0.06000
H916        H  0.78930531  0.46692853  0.22070360     0.07900
H917        H  0.76646850  0.43858240  0.17412946     0.11300
H918        H  0.75925796  0.37981520  0.23825719     0.11600
H919        H  0.78149445  0.40799976  0.28457471     0.07900
C920        C  0.78607295  0.44807634  0.32036814    -0.11200
C921        C  0.79530987  0.46326345  0.34914600    -0.10500
C922        C  0.81547707  0.48695342  0.34586780    -0.01400
C923        C  0.82598763  0.49523750  0.31287479    -0.11600
C924        C  0.81664516  0.47999869  0.28390416    -0.10000
H925        H  0.77037965  0.43001380  0.32390759     0.07900
H926        H  0.78675678  0.45630969  0.37415843     0.11600
H927        H  0.84165434  0.51334261  0.30957488     0.11300
H928        H  0.82529795  0.48675203  0.25891196     0.07900
C929        C  0.60455066  0.58584553  0.64186419    -0.11200
C930        C  0.61600757  0.60626328  0.66328097     0.05900
C931        C  0.63566431  0.60980820  0.68448225    -0.10000
C932        C  0.64383454  0.59337324  0.68377943    -0.11600
C933        C  0.63221919  0.57296627  0.66226239    -0.01400
C934        C  0.61252407  0.56947150  0.64136427    -0.10500
C935        C  0.60702842  0.62341472  0.66290688     0.06000
H936        H  0.64486061  0.62540240  0.70121101     0.07900
H937        H  0.65900897  0.59646949  0.70025194     0.11300
H938        H  0.60309378  0.55390738  0.62460255     0.11600
H939        H  0.58909227  0.58232262  0.62570200     0.07900
C940        C  0.60075838  0.62979897  0.63110721    -0.11200
C941        C  0.58883269  0.64274274  0.63021374    -0.10500
C942        C  0.58277734  0.64965125  0.66110282    -0.01400
C943        C  0.59046167  0.64475344  0.69296924    -0.11600
C944        C  0.60258568  0.63179693  0.69385835    -0.10000
H945        H  0.60435191  0.62402346  0.60679868     0.07900
H946        H  0.58325391  0.64628165  0.60524317     0.11600
H947        H  0.58594877  0.64976971  0.71721412     0.11300
H948        H  0.60719115  0.62713755  0.71876031     0.07900
C949        C  0.62740221  0.44366423  0.78190456    -0.11200
C950        C  0.62817154  0.45340705  0.81464190     0.05900
C951        C  0.63542708  0.47800890  0.81636965    -0.10000
C952        C  0.64134335  0.49231190  0.78598455    -0.11600
C953        C  0.64040236  0.48237449  0.75332126    -0.01400
C954        C  0.63342597  0.45791399  0.75175883    -0.10500
C955        C  0.62177760  0.43775835  0.84648354     0.06000
H956        H  0.63611952  0.48608156  0.84111915     0.07900
H957        H  0.64650074  0.51106642  0.78800957     0.11300
H958        H  0.63244087  0.44964888  0.72705390     0.11600
H959        H  0.62238815  0.42496828  0.77956843     0.07900
C960        C  0.60254053  0.41346364  0.84562459    -0.11200
C961        C  0.59843061  0.39771811  0.87357464    -0.10500
C962        C  0.61390717  0.40560973  0.90299528    -0.01400
C963        C  0.63125374  0.43064243  0.90542361    -0.11600
C964        C  0.63546212  0.44640439  0.87732867    -0.10000
H965        H  0.59083604  0.40646470  0.82294081     0.07900
H966        H  0.58338896  0.37924555  0.87150196     0.11600
H967        H  0.64280576  0.43765582  0.92825979     0.11300
H968        H  0.65020230  0.46507972  0.87918615     0.07900
C969        C  0.76685583  0.54508174  0.50068251    -0.11200
C970        C  0.77229613  0.55070516  0.53619822     0.05900
C971        C  0.79540807  0.55609322  0.54847091    -0.10000
C972        C  0.81192402  0.55464127  0.52651342    -0.11600
C973        C  0.80596401  0.54798790  0.49153165    -0.01400
C974        C  0.78347562  0.54380453  0.47867945    -0.10500
C975        C  0.75346892  0.54953239  0.56052768     0.06000
H976        H  0.80068974  0.56109353  0.57526667     0.07900
H977        H  0.82911981  0.55801875  0.53727176     0.11300
H978        H  0.77825329  0.53850507  0.45192735     0.11600
H979        H  0.74925587  0.54049140  0.49005120     0.07900
C980        C  0.73570456  0.55465374  0.54865414    -0.11200
C981        C  0.71669738  0.55120124  0.57033866    -0.10500
C982        C  0.71497785  0.54279778  0.60471077    -0.01400
C983        C  0.73322711  0.53869572  0.61725777    -0.11600
C984        C  0.75216767  0.54194015  0.59545836    -0.10000
H985        H  0.73624187  0.56109418  0.52237579     0.07900
H986        H  0.70297254  0.55461150  0.55985632     0.11600
H987        H  0.73235615  0.53208442  0.64354490     0.11300
H988        H  0.76515438  0.53744761  0.60570416     0.07900
C989        C  0.35237644  0.96238920  0.70001153    -0.11200
C990        C  0.35634800  0.97751556  0.67097055     0.05900
C991        C  0.34952199  0.96692231  0.63794416    -0.10000
C992        C  0.34010963  0.94214088  0.63384217    -0.11600
C993        C  0.33708083  0.92724567  0.66265746    -0.01400
C994        C  0.34275755  0.93750998  0.69590802    -0.10500
C995        C  0.36953795  0.00439858  0.67446476     0.06000
H996        H  0.35260049  0.97798789  0.61495752     0.07900
H997        H  0.33597714  0.93477256  0.60787979     0.11300
H998        H  0.34072948  0.92650640  0.71858864     0.11600
H999        H  0.35719259  0.96988460  0.72586291     0.07900
C1000       C  0.36331086  0.01855353  0.65362824    -0.11200
C1001       C  0.37778882  0.04392108  0.65387501    -0.10500
C1002       C  0.39892060  0.05561327  0.67467382    -0.01400
C1003       C  0.40449192  0.04154825  0.69661878    -0.11600
C1004       C  0.38994322  0.01629607  0.69665829    -0.10000
H1005       H  0.34756239  0.00999162  0.63651272     0.07900
H1006       H  0.37313070  0.05431417  0.63657922     0.11600
H1007       H  0.42068238  0.05007412  0.71292547     0.11300
H1008       H  0.39548904  0.00607542  0.71275484     0.07900
C1009       C  0.51133285  0.11018811  0.54481199    -0.11200
C1010       C  0.53602145  0.12204744  0.55495780     0.05900
C1011       C  0.54285645  0.13335747  0.58747999    -0.10000
C1012       C  0.52559010  0.13355578  0.60891249    -0.11600
C1013       C  0.50106831  0.12228129  0.59843187    -0.01400
C1014       C  0.49397587  0.11030470  0.56641244    -0.10500
C1015       C  0.55492043  0.12328549  0.53172747     0.06000
H1016       H  0.56164837  0.14215993  0.59634702     0.07900
H1017       H  0.53149483  0.14274384  0.63359027     0.11300
H1018       H  0.47513411  0.10148853  0.55776030     0.11600
H1019       H  0.50557848  0.10141865  0.51983209     0.07900
C1020       C  0.55085292  0.10296414  0.51310850    -0.11200
C1021       C  0.56965091  0.10401437  0.49346951    -0.10500
C1022       C  0.59270585  0.12540797  0.49214376    -0.01400
C1023       C  0.59638812  0.14590957  0.50960842    -0.11600
C1024       C  0.57769755  0.14487998  0.52909408    -0.10000
H1025       H  0.53346867  0.08608314  0.51468890     0.07900
H1026       H  0.56634091  0.08798706  0.48001035     0.11600
H1027       H  0.61389115  0.16270648  0.50868888     0.11300
H1028       H  0.58116254  0.16099974  0.54243213     0.07900
C1029       C  0.49787159  0.15158553  0.81060108    -0.11200
C1030       C  0.51881276  0.17506800  0.81151459     0.05900
C1031       C  0.52355787  0.19018344  0.78209369    -0.10000
C1032       C  0.50862256  0.18182623  0.75246546    -0.11600
C1033       C  0.48803844  0.15834568  0.75157352    -0.01400
C1034       C  0.48258555  0.14344941  0.78117583    -0.10500
C1035       C  0.53550567  0.18400004  0.84279467     0.06000
H1036       H  0.53879143  0.20865621  0.78174148     0.07900
H1037       H  0.51327259  0.19376537  0.73009722     0.11300
H1038       H  0.46699205  0.12512304  0.78109799     0.11600
H1039       H  0.49351190  0.13913005  0.83219598     0.07900
C1040       C  0.52683556  0.17528578  0.87661379    -0.11200
C1041       C  0.54194970  0.18552494  0.90590861    -0.10500
C1042       C  0.56627452  0.20506182  0.90251217    -0.01400
C1043       C  0.57502922  0.21300041  0.86845748    -0.11600
C1044       C  0.56021613  0.20234706  0.83930431    -0.10000
H1045       H  0.50793147  0.16143505  0.88087992     0.07900
H1046       H  0.53380384  0.17918424  0.93123590     0.11600
H1047       H  0.59322506  0.22844221  0.86431975     0.11300
H1048       H  0.56815855  0.20918708  0.81398871     0.07900
C1049       C  0.33848163  0.38087558  0.46500784    -0.11200
C1050       C  0.34542515  0.37494479  0.43386731     0.05900
C1051       C  0.34095120  0.38346595  0.40236044    -0.10000
C1052       C  0.33170043  0.39904108  0.40231637    -0.11600
C1053       C  0.32685108  0.40651763  0.43376006    -0.01400
C1054       C  0.32956133  0.39657088  0.46496421    -0.10500
C1055       C  0.35961213  0.36230904  0.43490622     0.06000
H1056       H  0.34599616  0.37935246  0.37782661     0.07900
H1057       H  0.32972596  0.40634184  0.37782862     0.11300
H1058       H  0.32564780  0.40165620  0.48963306     0.11600
H1059       H  0.34077473  0.37407642  0.48973946     0.07900
C1060       C  0.37656146  0.36733086  0.46193446    -0.11200
C1061       C  0.39141160  0.35738915  0.46236217    -0.10500
C1062       C  0.39003883  0.34211546  0.43573052    -0.01400
C1063       C  0.37275335  0.33645252  0.40896028    -0.11600
C1064       C  0.35772232  0.34647789  0.40851542    -0.10000
H1065       H  0.37915444  0.37979953  0.48232534     0.07900
H1066       H  0.40453831  0.36225351  0.48332979     0.11600
H1067       H  0.37125299  0.32476174  0.38800995     0.11300
H1068       H  0.34479685  0.34199484  0.38739118     0.07900
C1069       C  0.52114075  0.38677434  0.55255921    -0.11200
C1070       C  0.53993266  0.40838306  0.53762730     0.05900
C1071       C  0.53954792  0.41193662  0.50152738    -0.10000
C1072       C  0.52056552  0.39451179  0.48098344    -0.11600
C1073       C  0.50149585  0.37326369  0.49613979    -0.01400
C1074       C  0.50209284  0.36942594  0.53203519    -0.10500
C1075       C  0.55950608  0.42739653  0.55969696     0.06000
H1076       H  0.55357900  0.42847779  0.48924757     0.07900
H1077       H  0.52054876  0.39789948  0.45334018     0.11300
H1078       H  0.48774242  0.35306317  0.54430279     0.11600
H1079       H  0.52114985  0.38326701  0.58015371     0.07900
C1080       C  0.55398581  0.43260397  0.59249891    -0.11200
C1081       C  0.57224677  0.45093209  0.61287240    -0.10500
C1082       C  0.59640697  0.46438183  0.60091655    -0.01400
C1083       C  0.60201613  0.45911315  0.56831424    -0.11600
C1084       C  0.58376072  0.44083160  0.54790046    -0.10000
H1085       H  0.53543540  0.42284674  0.60214301     0.07900
H1086       H  0.56743308  0.45465718  0.63790807     0.11600
H1087       H  0.62051840  0.46921179  0.55849003     0.11300
H1088       H  0.58868633  0.43708447  0.52297902     0.07900
C1089       C  0.50131989  0.35741506  0.29324941    -0.11200
C1090       C  0.50646519  0.33985535  0.28258144     0.05900
C1091       C  0.49529270  0.31741696  0.30013562    -0.10000
C1092       C  0.47962552  0.31278423  0.32815856    -0.11600
C1093       C  0.47512182  0.33064159  0.33958133    -0.01400
C1094       C  0.48598967  0.35293908  0.32164586    -0.10500
C1095       C  0.52355720  0.34492190  0.25342336     0.06000
H1096       H  0.49875610  0.30347289  0.29219862     0.07900
H1097       H  0.47171596  0.29553428  0.34165220     0.11300
H1098       H  0.48302300  0.36712342  0.33002376     0.11600
H1099       H  0.50974360  0.37487222  0.28024370     0.07900
C1100       C  0.52084770  0.35417629  0.22163747    -0.11200
C1101       C  0.53579580  0.35725584  0.19332796    -0.10500
C1102       C  0.55459685  0.35189970  0.19616747    -0.01400
C1103       C  0.55747704  0.34329033  0.22889418    -0.11600
C1104       C  0.54220483  0.33976582  0.25685327    -0.10000
H1105       H  0.50637732  0.35803174  0.21820057     0.07900
H1106       H  0.53160346  0.36291764  0.16907413     0.11600
H1107       H  0.57091820  0.33805420  0.23246719     0.11300
H1108       H  0.54476785  0.33265571  0.28113953     0.07900
C1109       C  0.44871821  0.23668292  0.50835853    -0.11200
C1110       C  0.42950682  0.22391216  0.53205116     0.05900
C1111       C  0.41104349  0.22957034  0.53333016    -0.10000
C1112       C  0.41190832  0.24765363  0.51140662    -0.11600
C1113       C  0.43144540  0.26065367  0.48818141    -0.01400
C1114       C  0.44972416  0.25481566  0.48689644    -0.10500
C1115       C  0.42927456  0.20497001  0.55510420     0.06000
H1116       H  0.39594435  0.21997074  0.55118824     0.07900
H1117       H  0.39766565  0.25188567  0.51324352     0.11300
H1118       H  0.46513426  0.26458104  0.46957520     0.11600
H1119       H  0.46338672  0.23302150  0.50697844     0.07900
C1120       C  0.43501912  0.18855328  0.54127400    -0.11200
C1121       C  0.43748073  0.17234954  0.56283277    -0.10500
C1122       C  0.43431815  0.17203511  0.59897204    -0.01400
C1123       C  0.42770456  0.18782512  0.61289287    -0.11600
C1124       C  0.42510718  0.20408828  0.59112095    -0.10000
H1125       H  0.43801054  0.18850853  0.51364639     0.07900
H1126       H  0.44241133  0.16034602  0.55114624     0.11600
H1127       H  0.42517707  0.18803964  0.64062060     0.11300
H1128       H  0.42079050  0.21660358  0.60258822     0.07900
loop_ 
_geom_bond_atom_site_label_1 
_geom_bond_atom_site_label_2 
_geom_bond_distance 
_geom_bond_site_symmetry_2 
_ccdc_geom_bond_type 
In1           O3   2.252       .  S
In1           O4   2.253       .  S
In1          O12   2.244       .  S
In1           O6   2.290       .  S
In1           O8   2.305       .  S
In1           O9   2.248       .  S
In1          O10   2.240       .  S
In1          O13   2.269       .  S
C2            O8   1.264       .  A
C2           O10   1.257       .  A
C2         C1062   1.493       .  S
O3           C11   1.259       .  A
O4           C11   1.258       .  A
C5           O12   1.259       .  A
C5            O6   1.265       .  A
C5         C1113   1.490       .  S
C7            O9   1.260       .  A
C7           O13   1.264       .  A
C7         C1093   1.484       .  S
C11        C1073   1.476       .  S
In14         O16   2.250       .  S
In14         O17   2.244       .  S
In14         O25   2.237       .  S
In14         O19   2.300       .  S
In14         O21   2.281       .  S
In14         O22   2.255       .  S
In14         O23   2.235       .  S
In14         O26   2.266       .  S
C15          O21   1.264       .  A
C15          O23   1.258       .  A
C15        C1002   1.482       .  S
O16          C24   1.258       .  A
O17          C24   1.259       .  A
C18          O25   1.256       .  A
C18          O19   1.265       .  A
C18        C1122   1.490       .  S
C20          O22   1.262       .  A
C20          O26   1.263       .  A
C20        C1033   1.486       .  S
C24        C1013   1.472       .  S
In27         O29   2.249       .  S
In27         O30   2.243       .  S
In27         O38   2.250       .  S
In27         O32   2.285       .  S
In27         O34   2.233       .  S
In27         O35   2.246       .  S
In27         O36   2.289       .  S
In27         O39   2.285       .  S
C28          O34   1.257       .  A
C28          O36   1.264       .  A
C28         C933   1.484       .  S
O29          C37   1.262       .  A
O30          C37   1.260       .  A
C31          O38   1.258       .  A
C31          O32   1.263       .  A
C31         C982   1.489       .  S
C33          O35   1.259       .  A
C33          O39   1.263       .  A
C33         C953   1.488       .  S
C37        C1082   1.475       .  S
In40         O42   2.242       .  S
In40         O43   2.249       .  S
In40         O51   2.284       .  S
In40         O45   2.262       .  S
In40         O47   2.298       .  S
In40         O48   2.245       .  S
In40         O49   2.229       .  S
In40         O52   2.280       .  S
C41          O47   1.265       .  A
C41          O49   1.257       .  A
C41         C873   1.487       .  S
O42          C50   1.261       .  A
O43          C50   1.261       .  A
C44          O51   1.261       .  A
C44          O45   1.257       .  A
C44         C973   1.490       .  S
C46          O48   1.259       .  A
C46          O52   1.263       .  A
C46         C922   1.487       .  S
C50         C893   1.475       .  S
In53         O55   2.234       .  S
In53         O56   2.254       .  S
In53         O64   2.293       .  S
In53         O58   2.238       .  S
In53         O60   2.229       .  S
In53         O61   2.261       .  S
In53         O62   2.288       .  S
In53         O65   2.268       .  S
C54          O60   1.257       .  A
C54          O62   1.265       .  A
C54         C813   1.486       .  S
O55          C63   1.259       .  A
O56          C63   1.258       .  A
C57          O64   1.267       .  A
C57          O58   1.260       .  A
C57         C853   1.492       .  S
C59          O61   1.259       .  A
C59          O65   1.262       .  A
C59         C833   1.488       .  S
C63        C1022   1.472       .  S
In66         O68   2.270       .  S
In66         O69   2.233       .  S
In66         O77   2.282       .  S
In66         O71   2.262       .  S
In66         O73   2.284       .  S
In66         O74   2.240       .  S
In66         O75   2.241       .  S
In66         O78   2.275       .  S
C67          O73   1.264       .  A
C67          O75   1.259       .  A
C67         C773   1.484       .  S
O68          C76   1.259       .  A
O69          C76   1.256       .  A
C70          O77   1.260       .  A
C70          O71   1.260       .  A
C70         C862   1.491       .  S
C72          O74   1.260       .  A
C72          O78   1.265       .  A
C72         C793   1.486       .  S
C76         C902   1.474       .  S
C79         C713   1.557       .  S
C79         C733   1.556       .  S
C79         C762   1.556       .  S
C79        C1042   1.551       .  S
C80         C673   1.565       .  S
C80         C693   1.574       .  S
C80         C742   1.564       .  S
C80         C842   1.566       .  S
C81         C633   1.561       .  S
C81         C653   1.552       .  S
C81         C722   1.561       .  S
C81         C962   1.551       .  S
C82         C613   1.566       .  S
C82         C662   1.561       .  S
C82         C702   1.564       .  S
C82        C1102   1.560       .  S
C83         C593   1.556       .  S
C83         C642   1.562       .  S
C83         C753   1.555       .  S
C83         C802   1.552       .  S
C84         C602   1.560       .  S
C84         C622   1.560       .  S
C84         C682   1.567       .  S
C84         C913   1.552       .  S
In85         O87   2.272       .  S
In85         O88   2.217       .  S
In85         O96   2.277       .  S
In85         O90   2.251       .  S
In85         O92   2.296       .  S
In85         O93   2.236       .  S
In85         O94   2.221       .  S
In85         O97   2.250       .  S
C86          O92   1.265       .  A
C86          O94   1.256       .  A
C86         C782   1.484       .  S
O87          C95   1.266       .  A
O88          C95   1.258       .  A
C89          O96   1.261       .  A
C89          O90   1.258       .  A
C89         C573   1.486       .  S
C91          O93   1.261       .  A
C91          O97   1.262       .  A
C91         C542   1.475       .  S
C95         C562   1.476       .  S
In98        O100   2.261       .  S
In98        O101   2.240       .  S
In98        O109   2.244       .  S
In98        O103   2.293       .  S
In98        O105   2.258       .  S
In98        O106   2.243       .  S
In98        O107   2.286       .  S
In98        O110   2.284       .  S
C99         O105   1.257       .  A
C99         O107   1.261       .  A
C99         C582   1.489       .  S
O100        C108   1.261       .  A
O101        C108   1.259       .  A
C102        O109   1.257       .  A
C102        O103   1.263       .  A
C102       C1053   1.489       .  S
C104        O106   1.260       .  A
C104        O110   1.267       .  A
C104        C513   1.490       .  S
C108        C493   1.476       .  S
In111       O113   2.250       .  S
In111       O114   2.250       .  S
In111       O122   2.248       .  S
In111       O116   2.274       .  S
In111       O118   2.274       .  S
In111       O119   2.247       .  S
In111       O120   2.267       .  S
In111       O123   2.280       .  S
C112        O118   1.260       .  A
C112        O120   1.260       .  A
C112        C473   1.489       .  S
O113        C121   1.259       .  A
O114        C121   1.260       .  A
C115        O122   1.259       .  A
C115        O116   1.262       .  A
C115        C993   1.484       .  S
C117        O119   1.259       .  A
C117        O123   1.266       .  A
C117        C453   1.489       .  S
C121        C442   1.475       .  S
In124       O126   2.258       .  S
In124       O127   2.246       .  S
In124       O135   2.286       .  S
In124       O129   2.242       .  S
In124       O131   2.280       .  S
In124       O132   2.236       .  S
In124       O133   2.253       .  S
In124       O136   2.289       .  S
C125        O131   1.263       .  A
C125        O133   1.261       .  A
C125        C482   1.489       .  S
O126        C134   1.259       .  A
O127        C134   1.259       .  A
C128        O135   1.263       .  A
C128        O129   1.258       .  A
C128        C882   1.486       .  S
C130        O132   1.257       .  A
C130        O136   1.266       .  A
C130        C422   1.487       .  S
C134        C533   1.475       .  S
In137       O139   2.277       .  S
In137       O140   2.238       .  S
In137       O148   2.246       .  S
In137       O142   2.284       .  S
In137       O144   2.257       .  S
In137       O145   2.240       .  S
In137       O146   2.269       .  S
In137       O149   2.248       .  S
C138        O144   1.258       .  A
C138        O146   1.259       .  A
C138        C822   1.483       .  S
O139        C147   1.265       .  A
O140        C147   1.258       .  A
C141        O148   1.258       .  A
C141        O142   1.265       .  A
C141        C393   1.488       .  S
C143        O145   1.261       .  A
C143        O149   1.262       .  A
C143        C433   1.475       .  S
C147        C382   1.484       .  S
In150       O152   2.241       .  S
In150       O153   2.251       .  S
In150       O161   2.285       .  S
In150       O155   2.243       .  S
In150       O157   2.280       .  S
In150       O158   2.236       .  S
In150       O159   2.245       .  S
In150       O162   2.272       .  S
C151        O157   1.263       .  A
C151        O159   1.258       .  A
C151        C402   1.486       .  S
O152        C160   1.260       .  A
O153        C160   1.262       .  A
C154        O161   1.259       .  A
C154        O155   1.256       .  A
C154        C942   1.483       .  S
C156        O158   1.258       .  A
C156        O162   1.264       .  A
C156        C353   1.482       .  S
C160        C502   1.475       .  S
C163        C293   1.558       .  S
C163        C322   1.557       .  S
C163        C333   1.562       .  S
C163        C362   1.546       .  S
C164        C262   1.561       .  S
C164        C273   1.565       .  S
C164        C313   1.557       .  S
C164        C522   1.551       .  S
C165        C222   1.555       .  S
C165        C233   1.559       .  S
C165        C253   1.562       .  S
C165        C413   1.550       .  S
C166        C193   1.558       .  S
C166        C242   1.555       .  S
C166        C342   1.556       .  S
C166        C553   1.544       .  S
C167        C182   1.556       .  S
C167        C202   1.553       .  S
C167        C302   1.559       .  S
C167        C462   1.548       .  S
C168        C173   1.562       .  S
C168        C213   1.562       .  S
C168        C282   1.563       .  S
C168        C373   1.549       .  S
C169        C170   1.404       .  A
C169        C174   1.409       .  A
C169        H179   1.083       .  S
C170        C175   1.487       .  S
C170        C171   1.403       .  A
C171        C172   1.396       .  A
C171        H176   1.084       .  S
C172        C173   1.412       .  A
C172        H177   1.080       .  S
C173        C174   1.417       .  A
C174        H178   1.083       .  S
C175        C180   1.399       .  A
C175        C184   1.405   1_554  A
C180        C181   1.391   1_554  A
C180        H185   1.084       .  S
C181        C182   1.414       .  A
C181        H186   1.082       .  S
C182        C183   1.418       .  A
C183        C184   1.412       .  A
C183        H187   1.081       .  S
C184        H188   1.083   1_556  S
C189        C190   1.406       .  A
C189        C194   1.391       .  A
C189        H199   1.079       .  S
C190        C195   1.508       .  S
C190        C191   1.413       .  A
C191        C192   1.401       .  A
C191        H196   1.079       .  S
C192        C193   1.412       .  A
C192        H197   1.083       .  S
C193        C194   1.415       .  A
C194        H198   1.078       .  S
C195        C200   1.415       .  A
C195        C204   1.408       .  A
C200        C201   1.401       .  A
C200        H205   1.080       .  S
C201        C202   1.406       .  A
C201        H206   1.081       .  S
C202        C203   1.412       .  A
C203        C204   1.392       .  A
C203        H207   1.082       .  S
C204        H208   1.078       .  S
C209        C210   1.411       .  A
C209        C214   1.399       .  A
C209        H219   1.080       .  S
C210        C215   1.504       .  S
C210        C211   1.404       .  A
C211        C212   1.393       .  A
C211        H216   1.080       .  S
C212        C213   1.416       .  A
C212        H217   1.074       .  S
C213        C214   1.413       .  A
C214        H218   1.083       .  S
C215        C220   1.408       .  A
C215        C224   1.413       .  A
C220        C221   1.397       .  A
C220        H225   1.081       .  S
C221        C222   1.414       .  A
C221        H226   1.082       .  S
C222        C223   1.407       .  A
C223        C224   1.394       .  A
C223        H227   1.080       .  S
C224        H228   1.078       .  S
C229        C230   1.406       .  A
C229        C234   1.410       .  A
C229        H239   1.083       .  S
C230        C235   1.487       .  S
C230        C231   1.399       .  A
C231        C232   1.388       .  A
C231        H236   1.084       .  S
C232        C233   1.415       .  A
C232        H237   1.083       .  S
C233        C234   1.416       .  A
C234        H238   1.080       .  S
C235        C240   1.404       .  A
C235        C244   1.404       .  A
C240        C241   1.394   1_554  A
C240        H245   1.083       .  S
C241        C242   1.410       .  A
C241        H246   1.081       .  S
C242        C243   1.415       .  A
C243        C244   1.405   1_556  A
C243        H247   1.083       .  S
C244        H248   1.083       .  S
C249        C250   1.401       .  A
C249        C254   1.406       .  A
C249        H259   1.083       .  S
C250        C255   1.474       .  S
C250        C251   1.395       .  A
C251        C252   1.388       .  A
C251        H256   1.084       .  S
C252        C253   1.419       .  A
C252        H257   1.077       .  S
C253        C254   1.418       .  A
C254        H258   1.083       .  S
C255        C260   1.395       .  A
C255        C264   1.401       .  A
C260        C261   1.400       .  A
C260        H265   1.083       .  S
C261        C262   1.424       .  A
C261        H266   1.079       .  S
C262        C263   1.414       .  A
C263        C264   1.395       .  A
C263        H267   1.082       .  S
C264        H268   1.084       .  S
C269        C270   1.402       .  A
C269        C274   1.404       .  A
C269        H279   1.083       .  S
C270        C275   1.479       .  S
C270        C271   1.395       .  A
C271        C272   1.390       .  A
C271        H276   1.084       .  S
C272        C273   1.421       .  A
C272        H277   1.078       .  S
C273        C274   1.419       .  A
C274        H278   1.082       .  S
C275        C280   1.401       .  A
C275        C284   1.398       .  A
C280        C281   1.394       .  A
C280        H285   1.084       .  S
C281        C282   1.414       .  A
C281        H286   1.083       .  S
C282        C283   1.421       .  A
C283        C284   1.402       .  A
C283        H287   1.079       .  S
C284        H288   1.083       .  S
C289        C290   1.397       .  A
C289        C294   1.400       .  A
C289        H299   1.083       .  S
C290        C295   1.477       .  S
C290        C291   1.401       .  A
C291        C292   1.394       .  A
C291        H296   1.084       .  S
C292        C293   1.414       .  A
C292        H297   1.082       .  S
C293        C294   1.422       .  A
C294        H298   1.080       .  S
C295        C300   1.404       .  A
C295        C304   1.394       .  A
C300        C301   1.409       .  A
C300        H305   1.083       .  S
C301        C302   1.416       .  A
C301        H306   1.083       .  S
C302        C303   1.419       .  A
C303        C304   1.385       .  A
C303        H307   1.079       .  S
C304        H308   1.084       .  S
C309        C310   1.403       .  A
C309        C314   1.402       .  A
C309        H319   1.083       .  S
C310        C315   1.490       .  S
C310        C311   1.407       .  A
C311        C312   1.403       .  A
C311        H316   1.083       .  S
C312        C313   1.411       .  A
C312        H317   1.080       .  S
C313        C314   1.415       .  A
C314        H318   1.083       .  S
C315        C320   1.406       .  A
C315        C324   1.404   1_554  A
C320        C321   1.401   1_554  A
C320        H325   1.083       .  S
C321        C322   1.410       .  A
C321        H326   1.081       .  S
C322        C323   1.415       .  A
C323        C324   1.403       .  A
C323        H327   1.083       .  S
C324        H328   1.083   1_556  S
C329        C330   1.400       .  A
C329        C334   1.402       .  A
C329        H339   1.083       .  S
C330        C335   1.476       .  S
C330        C331   1.396       .  A
C331        C332   1.389       .  A
C331        H336   1.084       .  S
C332        C333   1.418       .  A
C332        H337   1.078       .  S
C333        C334   1.419       .  A
C334        H338   1.082       .  S
C335        C340   1.400       .  A
C335        C344   1.399       .  A
C340        C341   1.403       .  A
C340        H345   1.083       .  S
C341        C342   1.419       .  A
C341        H346   1.080       .  S
C342        C343   1.413       .  A
C343        C344   1.389       .  A
C343        H347   1.082       .  S
C344        H348   1.084       .  S
C349        C350   1.409       .  A
C349        C354   1.403       .  A
C349        H359   1.083       .  S
C350        C355   1.489       .  S
C350        C351   1.404       .  A
C351        C352   1.397       .  A
C351        H356   1.083       .  S
C352        C353   1.406       .  A
C352        H357   1.083       .  S
C353        C354   1.405       .  A
C354        H358   1.083       .  S
C355        C360   1.403       .  A
C355        C364   1.406       .  A
C360        C361   1.399       .  A
C360        H365   1.083       .  S
C361        C362   1.413       .  A
C361        H366   1.083       .  S
C362        C363   1.410       .  A
C363        C364   1.399       .  A
C363        H367   1.080       .  S
C364        H368   1.083       .  S
C369        C370   1.403       .  A
C369        C374   1.399       .  A
C369        H379   1.083       .  S
C370        C375   1.489       .  S
C370        C371   1.406       .  A
C371        C372   1.401       .  A
C371        H376   1.083       .  S
C372        C373   1.412       .  A
C372        H377   1.080       .  S
C373        C374   1.413       .  A
C374        H378   1.083       .  S
C375        C380   1.408       .  A
C375        C384   1.404       .  A
C380        C381   1.403       .  A
C380        H385   1.083       .  S
C381        C382   1.404       .  A
C381        H386   1.083       .  S
C382        C383   1.407       .  A
C383        C384   1.399       .  A
C383        H387   1.083       .  S
C384        H388   1.083       .  S
C389        C390   1.410       .  A
C389        C394   1.405       .  A
C389        H399   1.082       .  S
C390        C395   1.498       .  S
C390        C391   1.407       .  A
C391        C392   1.401       .  A
C391        H396   1.083       .  S
C392        C393   1.407       .  A
C392        H397   1.083       .  S
C393        C394   1.405       .  A
C394        H398   1.083       .  S
C395        C400   1.407       .  A
C395        C404   1.410       .  A
C400        C401   1.400       .  A
C400        H405   1.083       .  S
C401        C402   1.406       .  A
C401        H406   1.083       .  S
C402        C403   1.405       .  A
C403        C404   1.404       .  A
C403        H407   1.083       .  S
C404        H408   1.083       .  S
C409        C410   1.407       .  A
C409        C414   1.401       .  A
C409        H419   1.083       .  S
C410        C415   1.496       .  S
C410        C411   1.404       .  A
C411        C412   1.401       .  A
C411        H416   1.083       .  S
C412        C413   1.414       .  A
C412        H417   1.083       .  S
C413        C414   1.413       .  A
C414        H418   1.080       .  S
C415        C420   1.405       .  A
C415        C424   1.411       .  A
C420        C421   1.399       .  A
C420        H425   1.083       .  S
C421        C422   1.407       .  A
C421        H426   1.083       .  S
C422        C423   1.404       .  A
C423        C424   1.405       .  A
C423        H427   1.083       .  S
C424        H428   1.083       .  S
C429        C430   1.407       .  A
C429        C434   1.396       .  A
C429        H439   1.082       .  S
C430        C435   1.489       .  S
C430        C431   1.408       .  A
C431        C432   1.399       .  A
C431        H436   1.083       .  S
C432        C433   1.404       .  A
C432        H437   1.083       .  S
C433        C434   1.402       .  A
C434        H438   1.083       .  S
C435        C440   1.407       .  A
C435        C444   1.407       .  A
C440        C441   1.397       .  A
C440        H445   1.083       .  S
C441        C442   1.403       .  A
C441        H446   1.083       .  S
C442        C443   1.403       .  A
C443        C444   1.397       .  A
C443        H447   1.083       .  S
C444        H448   1.082       .  S
C449        C450   1.412       .  A
C449        C454   1.405       .  A
C449        H459   1.082       .  S
C450        C455   1.502       .  S
C450        C451   1.408       .  A
C451        C452   1.402       .  A
C451        H456   1.082       .  S
C452        C453   1.407       .  A
C452        H457   1.083       .  S
C453        C454   1.404       .  A
C454        H458   1.083       .  S
C455        C460   1.406       .  A
C455        C464   1.409       .  A
C460        C461   1.401       .  A
C460        H465   1.082       .  S
C461        C462   1.413       .  A
C461        H466   1.083       .  S
C462        C463   1.413       .  A
C463        C464   1.403       .  A
C463        H467   1.081       .  S
C464        H468   1.082       .  S
C469        C470   1.406       .  A
C469        C474   1.406       .  A
C469        H479   1.083       .  S
C470        C475   1.491       .  S
C470        C471   1.406       .  A
C471        C472   1.401       .  A
C471        H476   1.083       .  S
C472        C473   1.406       .  A
C472        H477   1.083       .  S
C473        C474   1.408       .  A
C474        H478   1.083       .  S
C475        C480   1.407       .  A
C475        C484   1.405       .  A
C480        C481   1.407       .  A
C480        H485   1.083       .  S
C481        C482   1.408       .  A
C481        H486   1.083       .  S
C482        C483   1.406       .  A
C483        C484   1.400       .  A
C483        H487   1.083       .  S
C484        H488   1.083       .  S
C489        C490   1.407       .  A
C489        C494   1.396       .  A
C489        H499   1.082       .  S
C490        C495   1.489       .  S
C490        C491   1.408       .  A
C491        C492   1.400       .  A
C491        H496   1.082       .  S
C492        C493   1.404       .  A
C492        H497   1.083       .  S
C493        C494   1.403       .  A
C494        H498   1.083       .  S
C495        C500   1.408       .  A
C495        C504   1.407       .  A
C500        C501   1.397       .  A
C500        H505   1.082       .  S
C501        C502   1.403       .  A
C501        H506   1.083       .  S
C502        C503   1.403       .  A
C503        C504   1.398       .  A
C503        H507   1.083       .  S
C504        H508   1.082       .  S
C509        C510   1.413       .  A
C509        C514   1.405       .  A
C509        H519   1.082       .  S
C510        C515   1.502       .  S
C510        C511   1.407       .  A
C511        C512   1.402       .  A
C511        H516   1.082       .  S
C512        C513   1.407       .  A
C512        H517   1.083       .  S
C513        C514   1.404       .  A
C514        H518   1.083       .  S
C515        C520   1.405       .  A
C515        C524   1.411       .  A
C520        C521   1.399       .  A
C520        H525   1.082       .  S
C521        C522   1.413       .  A
C521        H526   1.083       .  S
C522        C523   1.410       .  A
C523        C524   1.405       .  A
C523        H527   1.080       .  S
C524        H528   1.082       .  S
C529        C530   1.406       .  A
C529        C534   1.397       .  A
C529        H539   1.082       .  S
C530        C535   1.489       .  S
C530        C531   1.409       .  A
C531        C532   1.398       .  A
C531        H536   1.083       .  S
C532        C533   1.403       .  A
C532        H537   1.083       .  S
C533        C534   1.404       .  A
C534        H538   1.083       .  S
C535        C540   1.408       .  A
C535        C544   1.407       .  A
C540        C541   1.399       .  A
C540        H545   1.082       .  S
C541        C542   1.404       .  A
C541        H546   1.083       .  S
C542        C543   1.403       .  A
C543        C544   1.395       .  A
C543        H547   1.083       .  S
C544        H548   1.082       .  S
C549        C550   1.403       .  A
C549        C554   1.396       .  A
C549        H559   1.083       .  S
C550        C555   1.489       .  S
C550        C551   1.407       .  A
C551        C552   1.399       .  A
C551        H556   1.083       .  S
C552        C553   1.409       .  A
C552        H557   1.080       .  S
C553        C554   1.413       .  A
C554        H558   1.083       .  S
C555        C560   1.405       .  A
C555        C564   1.409       .  A
C560        C561   1.394       .  A
C560        H565   1.083       .  S
C561        C562   1.404       .  A
C561        H566   1.083       .  S
C562        C563   1.403       .  A
C563        C564   1.403       .  A
C563        H567   1.083       .  S
C564        H568   1.082       .  S
C569        C570   1.406       .  A
C569        C574   1.400       .  A
C569        H579   1.083       .  S
C570        C575   1.497       .  S
C570        C571   1.410       .  A
C571        C572   1.405       .  A
C571        H576   1.083       .  S
C572        C573   1.406       .  A
C572        H577   1.083       .  S
C573        C574   1.406       .  A
C574        H578   1.083       .  S
C575        C580   1.406       .  A
C575        C584   1.410       .  A
C580        C581   1.402       .  A
C580        H585   1.083       .  S
C581        C582   1.408       .  A
C581        H586   1.083       .  S
C582        C583   1.405       .  A
C583        C584   1.404       .  A
C583        H587   1.083       .  S
C584        H588   1.083       .  S
C589        C590   1.397       .  A
C589        C594   1.389       .  A
C589        H599   1.084       .  S
C590        C595   1.483       .  S
C590        C591   1.405       .  A
C591        C592   1.413   1_554  A
C591        H596   1.083       .  S
C592        C593   1.417       .  A
C592        H597   1.081       .  S
C593        C594   1.415   1_556  A
C594        H598   1.083   1_554  S
C595        C600   1.401       .  A
C595        C604   1.404       .  A
C600        C601   1.396       .  A
C600        H605   1.084       .  S
C601        C602   1.414       .  A
C601        H606   1.081       .  S
C602        C603   1.414       .  A
C603        C604   1.408       .  A
C603        H607   1.083       .  S
C604        H608   1.083       .  S
C609        C610   1.397       .  A
C609        C614   1.385       .  A
C609        H619   1.083       .  S
C610        C615   1.488       .  S
C610        C611   1.408       .  A
C611        C612   1.407       .  A
C611        H616   1.082       .  S
C612        C613   1.415       .  A
C612        H617   1.077       .  S
C613        C614   1.420       .  A
C614        H618   1.080       .  S
C615        C620   1.404       .  A
C615        C624   1.403       .  A
C620        C621   1.387       .  A
C620        H625   1.083       .  S
C621        C622   1.413       .  A
C621        H626   1.083       .  S
C622        C623   1.418       .  A
C623        C624   1.403       .  A
C623        H627   1.079       .  S
C624        H628   1.082       .  S
C629        C630   1.398       .  A
C629        C634   1.401       .  A
C629        H639   1.083       .  S
C630        C635   1.480       .  S
C630        C631   1.401       .  A
C631        C632   1.395       .  A
C631        H636   1.083       .  S
C632        C633   1.416       .  A
C632        H637   1.082       .  S
C633        C634   1.420       .  A
C634        H638   1.079       .  S
C635        C640   1.397       .  A
C635        C644   1.402       .  A
C640        C641   1.391       .  A
C640        H645   1.084       .  S
C641        C642   1.418       .  A
C641        H646   1.078       .  S
C642        C643   1.417       .  A
C643        C644   1.404       .  A
C643        H647   1.083       .  S
C644        H648   1.083       .  S
C649        C650   1.401   1_556  A
C649        C654   1.402       .  A
C649        H659   1.083       .  S
C650        C655   1.481       .  S
C650        C651   1.404       .  A
C651        C652   1.399   1_554  A
C651        H656   1.084       .  S
C652        C653   1.411       .  A
C652        H657   1.081       .  S
C653        C654   1.415       .  A
C654        H658   1.083       .  S
C655        C660   1.403       .  A
C655        C664   1.399       .  A
C660        C661   1.401       .  A
C660        H665   1.084       .  S
C661        C662   1.415       .  A
C661        H666   1.078       .  S
C662        C663   1.419       .  A
C663        C664   1.400       .  A
C663        H667   1.083       .  S
C664        H668   1.083       .  S
C669        C670   1.398       .  A
C669        C674   1.392       .  A
C669        H679   1.084       .  S
C670        C675   1.481       .  S
C670        C671   1.403       .  A
C671        C672   1.404       .  A
C671        H676   1.083       .  S
C672        C673   1.417       .  A
C672        H677   1.083       .  S
C673        C674   1.417       .  A
C674        H678   1.074       .  S
C675        C680   1.397       .  A
C675        C684   1.402       .  A
C680        C681   1.397       .  A
C680        H685   1.084       .  S
C681        C682   1.421       .  A
C681        H686   1.075       .  S
C682        C683   1.418       .  A
C683        C684   1.399       .  A
C683        H687   1.083       .  S
C684        H688   1.083       .  S
C689        C690   1.405       .  A
C689        C694   1.409       .  A
C689        H699   1.083       .  S
C690        C695   1.475       .  S
C690        C691   1.390       .  A
C691        C692   1.388       .  A
C691        H696   1.084       .  S
C692        C693   1.425       .  A
C692        H697   1.079       .  S
C693        C694   1.417       .  A
C694        H698   1.076       .  S
C695        C700   1.403       .  A
C695        C704   1.394       .  A
C700        C701   1.409       .  A
C700        H705   1.083       .  S
C701        C702   1.418       .  A
C701        H706   1.083       .  S
C702        C703   1.418       .  A
C703        C704   1.384       .  A
C703        H707   1.078       .  S
C704        H708   1.082       .  S
C709        C710   1.399       .  A
C709        C714   1.388       .  A
C709        H719   1.083       .  S
C710        C715   1.483       .  S
C710        C711   1.406       .  A
C711        C712   1.404       .  A
C711        H716   1.083       .  S
C712        C713   1.414       .  A
C712        H717   1.083       .  S
C713        C714   1.416       .  A
C714        H718   1.081       .  S
C715        C720   1.398       .  A
C715        C724   1.403       .  A
C720        C721   1.396       .  A
C720        H725   1.083       .  S
C721        C722   1.421       .  A
C721        H726   1.078       .  S
C722        C723   1.414       .  A
C723        C724   1.396       .  A
C723        H727   1.082       .  S
C724        H728   1.083       .  S
C729        C730   1.400       .  A
C729        C734   1.395   1_554  A
C729        H739   1.084       .  S
C730        C735   1.479       .  S
C730        C731   1.400       .  A
C731        C732   1.405   1_554  A
C731        H736   1.083       .  S
C732        C733   1.418       .  A
C732        H737   1.083       .  S
C733        C734   1.416       .  A
C734        H738   1.078       .  S
C735        C740   1.400       .  A
C735        C744   1.399       .  A
C740        C741   1.397       .  A
C740        H745   1.084       .  S
C741        C742   1.417       .  A
C741        H746   1.077       .  S
C742        C743   1.420       .  A
C743        C744   1.403       .  A
C743        H747   1.083       .  S
C744        H748   1.083       .  S
C749        C750   1.400       .  A
C749        C754   1.395       .  A
C749        H759   1.083       .  S
C750        C755   1.479       .  S
C750        C751   1.406       .  A
C751        C752   1.399       .  A
C751        H756   1.083       .  S
C752        C753   1.412       .  A
C752        H757   1.080       .  S
C753        C754   1.415       .  A
C754        H758   1.082       .  S
C755        C760   1.398       .  A
C755        C764   1.407       .  A
C760        C761   1.384       .  A
C760        H765   1.084       .  S
C761        C762   1.415       .  A
C761        H766   1.081       .  S
C762        C763   1.413       .  A
C763        C764   1.407       .  A
C763        H767   1.080       .  S
C764        H768   1.083       .  S
C769        C770   1.408       .  A
C769        C774   1.397       .  A
C769        H779   1.083       .  S
C770        C775   1.497       .  S
C770        C771   1.409       .  A
C771        C772   1.407       .  A
C771        H776   1.082       .  S
C772        C773   1.405       .  A
C772        H777   1.083       .  S
C773        C774   1.403       .  A
C774        H778   1.083       .  S
C775        C780   1.406   1_655  A
C775        C784   1.411   1_655  A
C780        C781   1.393       .  A
C780        H785   1.082       .  S
C781        C782   1.404       .  A
C781        H786   1.083       .  S
C782        C783   1.406       .  A
C783        C784   1.409       .  A
C783        H787   1.083       .  S
C784        H788   1.082       .  S
C789        C790   1.410       .  A
C789        C794   1.399       .  A
C789        H799   1.082       .  S
C790        C795   1.503       .  S
C790        C791   1.411       .  A
C791        C792   1.405       .  A
C791        H796   1.082       .  S
C792        C793   1.405       .  A
C792        H797   1.083       .  S
C793        C794   1.404       .  A
C794        H798   1.083       .  S
C795        C800   1.407       .  A
C795        C804   1.408       .  A
C800        C801   1.400       .  A
C800        H805   1.082       .  S
C801        C802   1.414       .  A
C801        H806   1.079       .  S
C802        C803   1.412       .  A
C803        C804   1.403       .  A
C803        H807   1.083       .  S
C804        H808   1.082       .  S
C809        C810   1.406       .  A
C809        C814   1.395       .  A
C809        H819   1.082       .  S
C810        C815   1.496   1_545  S
C810        C811   1.411       .  A
C811        C812   1.407       .  A
C811        H816   1.083       .  S
C812        C813   1.406       .  A
C812        H817   1.083       .  S
C813        C814   1.405       .  A
C814        H818   1.083       .  S
C815        C820   1.409       .  A
C815        C824   1.408       .  A
C820        C821   1.399       .  A
C820        H825   1.083       .  S
C821        C822   1.404       .  A
C821        H826   1.083       .  S
C822        C823   1.405       .  A
C823        C824   1.402       .  A
C823        H827   1.083       .  S
C824        H828   1.082       .  S
C829        C830   1.407       .  A
C829        C834   1.404       .  A
C829        H839   1.083       .  S
C830        C835   1.497       .  S
C830        C831   1.409       .  A
C831        C832   1.402       .  A
C831        H836   1.083       .  S
C832        C833   1.405       .  A
C832        H837   1.083       .  S
C833        C834   1.407       .  A
C834        H838   1.083       .  S
C835        C840   1.404       .  A
C835        C844   1.403       .  A
C840        C841   1.404       .  A
C840        H845   1.083       .  S
C841        C842   1.419       .  A
C841        H846   1.078       .  S
C842        C843   1.418       .  A
C843        C844   1.400       .  A
C843        H847   1.082       .  S
C844        H848   1.083       .  S
C849        C850   1.412       .  A
C849        C854   1.411       .  A
C849        H859   1.082       .  S
C850        C855   1.502       .  S
C850        C851   1.407       .  A
C851        C852   1.398       .  A
C851        H856   1.083       .  S
C852        C853   1.406       .  A
C852        H857   1.083       .  S
C853        C854   1.408       .  A
C854        H858   1.083       .  S
C855        C860   1.410       .  A
C855        C864   1.409       .  A
C860        C861   1.409       .  A
C860        H865   1.083       .  S
C861        C862   1.409       .  A
C861        H866   1.083       .  S
C862        C863   1.404       .  A
C863        C864   1.400       .  A
C863        H867   1.083       .  S
C864        H868   1.082       .  S
C869        C870   1.410       .  A
C869        C874   1.410       .  A
C869        H879   1.083       .  S
C870        C875   1.497   1_655  S
C870        C871   1.406       .  A
C871        C872   1.394       .  A
C871        H876   1.083       .  S
C872        C873   1.404       .  A
C872        H877   1.083       .  S
C873        C874   1.408       .  A
C874        H878   1.083       .  S
C875        C880   1.409       .  A
C875        C884   1.407       .  A
C880        C881   1.408       .  A
C880        H885   1.083       .  S
C881        C882   1.407       .  A
C881        H886   1.083       .  S
C882        C883   1.403       .  A
C883        C884   1.397       .  A
C883        H887   1.083       .  S
C884        H888   1.083       .  S
C889        C890   1.406       .  A
C889        C894   1.395       .  A
C889        H899   1.083       .  S
C890        C895   1.482       .  S
C890        C891   1.405       .  A
C891        C892   1.399       .  A
C891        H896   1.083       .  S
C892        C893   1.405       .  A
C892        H897   1.083       .  S
C893        C894   1.403       .  A
C894        H898   1.083       .  S
C895        C900   1.404       .  A
C895        C904   1.407       .  A
C900        C901   1.393       .  A
C900        H905   1.083       .  S
C901        C902   1.403       .  A
C901        H906   1.083       .  S
C902        C903   1.405       .  A
C903        C904   1.401       .  A
C903        H907   1.083       .  S
C904        H908   1.083       .  S
C909        C910   1.406       .  A
C909        C914   1.401       .  A
C909        H919   1.083       .  S
C910        C915   1.495       .  S
C910        C911   1.405       .  A
C911        C912   1.403       .  A
C911        H916   1.083       .  S
C912        C913   1.414       .  A
C912        H917   1.083       .  S
C913        C914   1.412       .  A
C914        H918   1.080       .  S
C915        C920   1.406       .  A
C915        C924   1.409       .  A
C920        C921   1.398       .  A
C920        H925   1.083       .  S
C921        C922   1.405       .  A
C921        H926   1.083       .  S
C922        C923   1.407       .  A
C923        C924   1.406       .  A
C923        H927   1.083       .  S
C924        H928   1.083       .  S
C929        C930   1.405       .  A
C929        C934   1.394       .  A
C929        H939   1.083       .  S
C930        C935   1.490       .  S
C930        C931   1.408       .  A
C931        C932   1.408       .  A
C931        H936   1.083       .  S
C932        C933   1.407       .  A
C932        H937   1.083       .  S
C933        C934   1.404       .  A
C934        H938   1.083       .  S
C935        C940   1.405       .  A
C935        C944   1.408       .  A
C940        C941   1.395       .  A
C940        H945   1.083       .  S
C941        C942   1.404       .  A
C941        H946   1.083       .  S
C942        C943   1.408       .  A
C943        C944   1.407       .  A
C943        H947   1.083       .  S
C944        H948   1.083       .  S
C949        C950   1.406       .  A
C949        C954   1.398       .  A
C949        H959   1.083       .  S
C950        C955   1.496       .  S
C950        C951   1.409       .  A
C951        C952   1.407       .  A
C951        H956   1.083       .  S
C952        C953   1.407       .  A
C952        H957   1.083       .  S
C953        C954   1.405       .  A
C954        H958   1.083       .  S
C955        C960   1.406       .  A
C955        C964   1.406       .  A
C960        C961   1.399       .  A
C960        H965   1.083       .  S
C961        C962   1.410       .  A
C961        H966   1.081       .  S
C962        C963   1.414       .  A
C963        C964   1.403       .  A
C963        H967   1.083       .  S
C964        H968   1.083       .  S
C969        C970   1.412       .  A
C969        C974   1.404       .  A
C969        H979   1.082       .  S
C970        C975   1.505       .  S
C970        C971   1.409       .  A
C971        C972   1.403       .  A
C971        H976   1.082       .  S
C972        C973   1.406       .  A
C972        H977   1.083       .  S
C973        C974   1.404       .  A
C974        H978   1.083       .  S
C975        C980   1.409       .  A
C975        C984   1.413       .  A
C980        C981   1.402       .  A
C980        H985   1.082       .  S
C981        C982   1.406       .  A
C981        H986   1.083       .  S
C982        C983   1.404       .  A
C983        C984   1.405       .  A
C983        H987   1.083       .  S
C984        H988   1.082       .  S
C989        C990   1.409       .  A
C989        C994   1.403       .  A
C989        H999   1.083       .  S
C990        C995   1.495   1_565  S
C990        C991   1.407       .  A
C991        C992   1.400       .  A
C991        H996   1.083       .  S
C992        C993   1.405       .  A
C992        H997   1.083       .  S
C993        C994   1.405       .  A
C994        H998   1.083       .  S
C995       C1000   1.410       .  A
C995       C1004   1.406       .  A
C1000      C1001   1.404       .  A
C1000      H1005   1.083       .  S
C1001      C1002   1.404       .  A
C1001      H1006   1.083       .  S
C1002      C1003   1.405       .  A
C1003      C1004   1.398       .  A
C1003      H1007   1.083       .  S
C1004      H1008   1.083       .  S
C1009      C1010   1.405       .  A
C1009      C1014   1.399       .  A
C1009      H1019   1.083       .  S
C1010      C1015   1.481       .  S
C1010      C1011   1.406       .  A
C1011      C1012   1.393       .  A
C1011      H1016   1.083       .  S
C1012      C1013   1.401       .  A
C1012      H1017   1.083       .  S
C1013      C1014   1.405       .  A
C1014      H1018   1.083       .  S
C1015      C1020   1.406       .  A
C1015      C1024   1.404       .  A
C1020      C1021   1.400       .  A
C1020      H1025   1.083       .  S
C1021      C1022   1.405       .  A
C1021      H1026   1.083       .  S
C1022      C1023   1.401       .  A
C1023      C1024   1.392       .  A
C1023      H1027   1.083       .  S
C1024      H1028   1.083       .  S
C1029      C1030   1.411       .  A
C1029      C1034   1.405       .  A
C1029      H1039   1.081       .  S
C1030      C1035   1.508       .  S
C1030      C1031   1.413       .  A
C1031      C1032   1.401       .  A
C1031      H1036   1.081       .  S
C1032      C1033   1.402       .  A
C1032      H1037   1.083       .  S
C1033      C1034   1.405       .  A
C1034      H1038   1.083       .  S
C1035      C1040   1.411       .  A
C1035      C1044   1.407       .  A
C1040      C1041   1.406       .  A
C1040      H1045   1.081       .  S
C1041      C1042   1.413       .  A
C1041      H1046   1.081       .  S
C1042      C1043   1.412       .  A
C1043      C1044   1.397       .  A
C1043      H1047   1.082       .  S
C1044      H1048   1.081       .  S
C1049      C1050   1.409       .  A
C1049      C1054   1.399       .  A
C1049      H1059   1.082       .  S
C1050      C1055   1.504       .  S
C1050      C1051   1.411       .  A
C1051      C1052   1.409       .  A
C1051      H1056   1.082       .  S
C1052      C1053   1.406       .  A
C1052      H1057   1.083       .  S
C1053      C1054   1.405       .  A
C1054      H1058   1.083       .  S
C1055      C1060   1.408       .  A
C1055      C1064   1.412       .  A
C1060      C1061   1.397       .  A
C1060      H1065   1.082       .  S
C1061      C1062   1.405       .  A
C1061      H1066   1.083       .  S
C1062      C1063   1.408       .  A
C1063      C1064   1.412       .  A
C1063      H1067   1.083       .  S
C1064      H1068   1.082       .  S
C1069      C1070   1.406       .  A
C1069      C1074   1.397       .  A
C1069      H1079   1.083       .  S
C1070      C1075   1.487       .  S
C1070      C1071   1.407       .  A
C1071      C1072   1.398       .  A
C1071      H1076   1.083       .  S
C1072      C1073   1.404       .  A
C1072      H1077   1.083       .  S
C1073      C1074   1.403       .  A
C1074      H1078   1.083       .  S
C1075      C1080   1.407       .  A
C1075      C1084   1.406       .  A
C1080      C1081   1.398       .  A
C1080      H1085   1.083       .  S
C1081      C1082   1.403       .  A
C1081      H1086   1.083       .  S
C1082      C1083   1.404       .  A
C1083      C1084   1.397       .  A
C1083      H1087   1.083       .  S
C1084      H1088   1.083       .  S
C1089      C1090   1.404       .  A
C1089      C1094   1.401       .  A
C1089      H1099   1.083       .  S
C1090      C1095   1.487       .  S
C1090      C1091   1.406       .  A
C1091      C1092   1.401       .  A
C1091      H1096   1.083       .  S
C1092      C1093   1.405       .  A
C1092      H1097   1.083       .  S
C1093      C1094   1.407       .  A
C1094      H1098   1.083       .  S
C1095      C1100   1.402       .  A
C1095      C1104   1.400       .  A
C1100      C1101   1.401       .  A
C1100      H1105   1.083       .  S
C1101      C1102   1.417       .  A
C1101      H1106   1.078       .  S
C1102      C1103   1.418       .  A
C1103      C1104   1.398       .  A
C1103      H1107   1.082       .  S
C1104      H1108   1.083       .  S
C1109      C1110   1.406       .  A
C1109      C1114   1.398       .  A
C1109      H1119   1.083       .  S
C1110      C1115   1.495       .  S
C1110      C1111   1.409       .  A
C1111      C1112   1.409       .  A
C1111      H1116   1.083       .  S
C1112      C1113   1.408       .  A
C1112      H1117   1.083       .  S
C1113      C1114   1.405       .  A
C1114      H1118   1.083       .  S
C1115      C1120   1.405       .  A
C1115      C1124   1.410       .  A
C1120      C1121   1.397       .  A
C1120      H1125   1.083       .  S
C1121      C1122   1.406       .  A
C1121      H1126   1.083       .  S
C1122      C1123   1.407       .  A
C1123      C1124   1.409       .  A
C1123      H1127   1.083       .  S
C1124      H1128   1.083       .  S
