geometry optimzed in LAMMPS
_audit_creation_date              2020-11-30 
_audit_creation_method            'lammps2cif' 
_symmetry_space_group_name_H-M    'P1' 
_symmetry_Int_Tables_number       1 
_symmetry_cell_setting            triclinic 
loop_ 
_symmetry_equiv_pos_as_xyz 
  x,y,z 
_cell_length_a                    24.83087301 
_cell_length_b                    36.54067060188171 
_cell_length_c                    43.99151174757795 
_cell_angle_alpha                 94.87805029778296 
_cell_angle_beta                  89.34267683639389 
_cell_angle_gamma                 90.58761690933177 
loop_ 
_atom_site_label 
_atom_site_type_symbol 
_atom_site_fract_x 
_atom_site_fract_y 
_atom_site_fract_z 
_atom_site_charge 
C1          C  0.94208768  0.39844720  0.09623854    -0.02600
C2          C  0.64810015  0.14126623  0.35059013    -0.02600
Zr3        Zr  0.64333977  0.09156440  0.07194172     2.17500
O4          O  0.60007685  0.04386743  0.03830415    -0.51500
O5          O  0.71381647  0.04380846  0.07282420    -0.74700
O6          O  0.65871486  0.10097581  0.01705457    -0.81900
O7          O  0.55864074  0.06179782  0.14016008    -0.83200
O8          O  0.68698160  0.15992951  0.01670601    -0.78800
O9          O  0.57842961  0.04730636  0.09004390    -0.90500
O10         O  0.77451871  0.06680201  0.10719541    -0.76400
O11         O  0.72304377  0.12886260  0.07521951    -0.85900
O12         O  0.67518359  0.09115585  0.12288257    -0.85600
O13         O  0.61378475  0.15257696  0.06269936    -0.72400
O14         O  0.57298520  0.11750640  0.10529471    -0.84500
Zr15       Zr  0.66281505  0.21388517  0.15168311     2.26400
Zr16       Zr  0.69402263  0.18974453  0.06728302     2.06300
Zr17       Zr  0.60647812  0.11714891  0.15577574     2.10000
Zr18       Zr  0.75462609  0.12815274  0.12604925     1.78800
O19         O  0.51891363  0.12402270  0.18100396    -0.93300
O20         O  0.83479306  0.14148016  0.09631119    -0.41100
O21         O  0.68753363  0.15272155  0.16073734    -0.77800
O22         O  0.73147295  0.18908750  0.11722914    -0.96400
O23         O  0.62714354  0.21609691  0.10164803    -0.89700
O24         O  0.58135816  0.17835651  0.14832229    -0.92600
C25         C  0.75698210  0.04113211  0.08852283     1.01200
C26         C  0.55437952  0.04144362  0.11527136     1.14100
C27         C  0.67499680  0.12866497  0.00289326     1.04900
O28         O  0.78426382  0.19058550  0.04510383    -0.94700
O29         O  0.73249147  0.24996788  0.07969288    -0.90500
O30         O  0.72168965  0.26154894  0.13104928    -0.83600
C31         C  0.74049945  0.26947080  0.10480474     1.11500
O32         O  0.47331301  0.15276242  0.06756257    -0.96700
Zr33       Zr  0.54793173  0.17913670  0.09801357     1.88900
O34         O  0.59057154  0.25798489  0.15714669    -0.73400
O35         O  0.65995759  0.23530209  0.03516326    -0.52600
O36         O  0.53050792  0.21243671  0.05350668    -0.97300
O37         O  0.46390760  0.16815913  0.12522211    -0.54500
O38         O  0.52886567  0.24015602  0.12124680    -0.73900
C39         C  0.54821305  0.26336713  0.14195237     0.98500
O40         O  0.69882988  0.25430233  0.19375271    -0.62700
O41         O  0.63519591  0.06964523  0.18771344    -0.57500
O42         O  0.66030544  0.19823193  0.20540369    -0.94200
O43         O  0.62097244  0.14190600  0.20660336    -0.92600
O44         O  0.78413514  0.09360612  0.16768583    -0.93000
O45         O  0.82249909  0.15743079  0.15979493    -0.91800
C46         C  0.64218782  0.17097704  0.21950586     1.17300
H47         H  0.68126386  0.06647867  0.12823327     0.33200
H48         H  0.76462009  0.20298604  0.11891891     0.44100
H49         H  0.55552336  0.18761572  0.16358350     0.37600
H50         H  0.59822828  0.15255241  0.04268952     0.34100
H51         H  0.86423264  0.12823479  0.10547224     0.25900
H52         H  0.68873521  0.23816228  0.01975012     0.31800
H53         H  0.54591109  0.23725759  0.05861332     0.37700
H54         H  0.75049141  0.08737969  0.17847244     0.32200
H55         H  0.60280019  0.06389903  0.19982175     0.31100
H56         H  0.52140191  0.10977995  0.19909852     0.32800
H57         H  0.46489635  0.18498143  0.14407330     0.31700
H58         H  0.80659186  0.18123441  0.16747751     0.35700
H59         H  0.73771814  0.24878461  0.19412242     0.28500
H60         H  0.62955145  0.03190143  0.02595132     0.32700
H61         H  0.44620104  0.17244692  0.06740339     0.35500
H62         H  0.64101197  0.04729066  0.17376477     0.28200
H63         H  0.69702269  0.27954555  0.18731833     0.41000
H64         H  0.78262998  0.20878320  0.02970373     0.31100
H65         H  0.82937828  0.12825111  0.07598424     0.38700
H66         H  0.46757484  0.14329692  0.13225565     0.30500
H67         H  0.63016486  0.22278824  0.02354617     0.30600
H68         H  0.57843448  0.05679267  0.02388870     0.30900
C69         C  0.71122395  0.13477305  0.36736132    -0.02600
Zr70       Zr  0.92286898  0.44478520  0.31767639     2.17500
O71         O  0.97644640  0.47935277  0.28286188    -0.51500
O72         O  0.85071808  0.49060209  0.31962928    -0.74700
O73         O  0.90170384  0.42912812  0.26364994    -0.81500
O74         O  0.00059341  0.48829404  0.38694875    -0.83200
O75         O  0.87175092  0.37008845  0.25795966    -0.78800
O76         O  0.98324458  0.49557880  0.33723525    -0.90500
O77         O  0.77662102  0.46114748  0.33561268    -0.76400
O78         O  0.84228796  0.40826532  0.31911902    -0.85900
O79         O  0.88871443  0.45429971  0.36866481    -0.85600
O80         O  0.94933166  0.38178346  0.30450035    -0.72400
O81         O  0.99151589  0.42288091  0.34972432    -0.84500
Zr82       Zr  0.90114608  0.33575403  0.39070641     2.26400
Zr83       Zr  0.86843063  0.34551259  0.30748833     2.06300
Zr84       Zr  0.95650038  0.43226814  0.40069439     2.10000
Zr85       Zr  0.80859948  0.41809065  0.37001277     1.78800
O86         O  0.04764617  0.42964307  0.41966838    -0.93300
O87         O  0.71746311  0.39739508  0.35665125    -0.41100
O88         O  0.87467175  0.39775174  0.40385761    -0.77800
O89         O  0.83230801  0.35565860  0.35821258    -0.96400
O90         O  0.93528136  0.32418138  0.33998489    -0.89700
O91         O  0.98263378  0.36990718  0.38862198    -0.92600
C92         C  0.80020327  0.48947425  0.32632785     1.01200
C93         C  0.00624638  0.50555403  0.36287145     1.14100
C94         C  0.88436857  0.40062772  0.24723595     1.04900
O95         O  0.77923545  0.33499374  0.28592771    -0.94700
O96         O  0.82919924  0.28735883  0.32133623    -0.90500
O97         O  0.84586495  0.28482297  0.37191335    -0.83600
C98         C  0.82505717  0.27227220  0.34666097     1.11500
O99         O  0.08900022  0.38632053  0.30939422    -0.96700
Zr100      Zr  0.01534758  0.35957486  0.33755947     1.88900
O101        O  0.96557509  0.28686931  0.38853457    -0.73400
O102        O  0.91066697  0.29840350  0.27286068    -0.52600
O103        O  0.03831303  0.32488867  0.28943368    -0.97300
O104        O  0.09810321  0.36094553  0.36698572    -0.54500
O105        O  0.02836409  0.29757990  0.35260303    -0.73900
C106        C  0.00706568  0.27771728  0.37239681     0.98500
O107        O  0.85009625  0.30319506  0.42796070    -0.62700
O108        O  0.92520418  0.48139844  0.43740193    -0.57500
O109        O  0.92200510  0.34983370  0.44460959    -0.94200
O110        O  0.94845593  0.40950913  0.45111986    -0.92600
O111        O  0.79372108  0.46921196  0.40837385    -0.93000
O112        O  0.74647250  0.39908656  0.40915927    -0.91800
C113        C  0.93694036  0.37844032  0.46138407     1.17300
H114        H  0.88179703  0.47996740  0.37422999     0.33200
H115        H  0.79970562  0.34156872  0.36034496     0.44100
H116        H  0.00822470  0.36203784  0.40305397     0.37600
H117        H  0.96428028  0.37930396  0.28407817     0.34100
H118        H  0.70960004  0.40758262  0.33706629     0.25900
H119        H  0.88196329  0.29007507  0.25836244     0.31800
H120        H  0.06431230  0.30621051  0.29488458     0.37700
H121        H  0.75433681  0.46974962  0.41213417     0.32200
H122        H  0.95746379  0.48903881  0.44944893     0.31100
H123        H  0.07040097  0.42596155  0.40111448     0.32800
H124        H  0.11472543  0.38541486  0.36525689     0.31700
H125        H  0.75693205  0.37360097  0.41227482     0.35700
H126        H  0.87598628  0.29044448  0.44026367     0.28500
H127        H  0.95020728  0.49221108  0.27084828     0.32700
H128        H  0.08908326  0.41276074  0.31654152     0.35500
H129        H  0.91786854  0.50239972  0.42529852     0.28200
H130        H  0.83239103  0.32191531  0.44222659     0.41000
H131        H  0.75466493  0.34878504  0.30048701     0.31100
H132        H  0.71956789  0.37058754  0.35137668     0.38700
H133        H  0.12219750  0.34365873  0.35496821     0.30500
H134        H  0.93669449  0.31179021  0.26056313     0.30600
H135        H  0.99343337  0.46083926  0.26812468     0.30900
C136        C  0.87579545  0.40386031  0.11145948    -0.02600
C137        C  0.44071402  0.40164127  0.13587148    -0.02600
C138        C  0.13680771  0.14499073  0.38869860    -0.02600
Zr139      Zr  0.14230245  0.21666500  0.17335325     2.17500
O140        O  0.08884338  0.25355991  0.21112799    -0.51500
O141        O  0.20633671  0.26923189  0.17091357    -0.74700
O142        O  0.16136509  0.20485308  0.22725059    -0.81500
O143        O  0.05870124  0.24657821  0.10758883    -0.83200
O144        O  0.20408013  0.14982339  0.22661623    -0.78800
O145        O  0.08045217  0.26318897  0.15689950    -0.90500
O146        O  0.26166621  0.25508708  0.13023012    -0.76400
O147        O  0.22706301  0.18613851  0.16664294    -0.85900
O148        O  0.16586435  0.21921177  0.12077229    -0.85600
O149        O  0.12539273  0.15335574  0.18318105    -0.72400
O150        O  0.07138527  0.18630197  0.14308250    -0.84500
Zr151      Zr  0.16761686  0.09694135  0.09400535     2.26400
Zr152      Zr  0.21054445  0.12258733  0.17523130     2.06300
Zr153      Zr  0.09736216  0.18788502  0.09067014     2.10000
Zr154      Zr  0.25104304  0.19028975  0.11450615     1.78800
O155        O  0.00298866  0.17700973  0.07784920    -0.93300
O156        O  0.33525130  0.19096150  0.14243258    -0.41100
O157        O  0.18312143  0.15938269  0.08362614    -0.77800
O158        O  0.23937254  0.12658449  0.12346424    -0.96400
O159        O  0.14081836  0.09309748  0.14549530    -0.89700
O160        O  0.08164020  0.12542551  0.10021528    -0.92600
C161        C  0.24256183  0.27778858  0.15131162     1.01200
C162        C  0.05748413  0.26899711  0.13166152     1.14100
C163        C  0.18286611  0.17834611  0.24050379     1.04900
O164        O  0.30321067  0.12881864  0.19264379    -0.94700
O165        O  0.24872239  0.06179350  0.16068888    -0.90500
O166        O  0.22135586  0.04810738  0.11220788    -0.83600
C167        C  0.24647603  0.04009091  0.13613974     1.11500
O168        O  0.98924050  0.15009840  0.18828378    -0.96700
Zr169      Zr  0.05687886  0.12337023  0.15257071     1.88900
O170        O  0.10388062  0.04622626  0.09534279    -0.73400
O171        O  0.18555573  0.07570320  0.20910619    -0.52600
O172        O  0.04310830  0.09022343  0.19785651    -0.97300
O173        O  0.96894956  0.12446266  0.12842838    -0.54500
O174        O  0.04598188  0.05936930  0.13508098    -0.73900
C175        C  0.06633451  0.03756890  0.11378394     0.98500
O176        O  0.21576817  0.06354815  0.05186614    -0.62700
O177        O  0.10776014  0.23056614  0.05125981    -0.57500
O178        O  0.15440196  0.10678150  0.04016074    -0.94200
O179        O  0.11285794  0.16182533  0.03862817    -0.92600
O180        O  0.26854261  0.22335210  0.06962579    -0.93000
O181        O  0.32159336  0.16753266  0.07909366    -0.91800
C182        C  0.13503601  0.13281869  0.02577102     1.17300
H183        H  0.16729376  0.24421159  0.11525174     0.33200
H184        H  0.27291315  0.11378799  0.11952511     0.44100
H185        H  0.05568900  0.11356084  0.08636674     0.37600
H186        H  0.11187838  0.15160353  0.20364277     0.34100
H187        H  0.36044745  0.20542909  0.13047792     0.25900
H188        H  0.21325730  0.07743162  0.22519290     0.31800
H189        H  0.00608488  0.07999080  0.19600422     0.37700
H190        H  0.23541144  0.23762012  0.06718223     0.32200
H191        H  0.07122637  0.24003259  0.04802674     0.31100
H192        H  0.99316398  0.19781451  0.06605597     0.32800
H193        H  0.94401353  0.11248631  0.14233044     0.31700
H194        H  0.31058120  0.14200459  0.07247807     0.35700
H195        H  0.25404705  0.06390588  0.05796325     0.28500
H196        H  0.11490387  0.26653564  0.22521921     0.32700
H197        H  0.97599790  0.17195653  0.17890721     0.35500
H198        H  0.12809706  0.25180307  0.06096932     0.28200
H199        H  0.20399550  0.03761156  0.05223516     0.41000
H200        H  0.32545009  0.12119430  0.17442227     0.31100
H201        H  0.32855046  0.20699019  0.16136769     0.38700
H202        H  0.97129252  0.10671964  0.11018777     0.30500
H203        H  0.15208998  0.08472614  0.21950748     0.30600
H204        H  0.06958226  0.23592546  0.22336242     0.30900
C205        C  0.20034303  0.14231518  0.36999159    -0.02600
Zr206      Zr  0.43294184  0.33586546  0.41499286     2.17500
O207        O  0.49152810  0.30675395  0.44989498    -0.51500
O208        O  0.36915378  0.28527267  0.41374287    -0.74700
O209        O  0.40721112  0.34817581  0.46816252    -0.81500
O210        O  0.51512234  0.29629730  0.34719274    -0.83200
O211        O  0.36802116  0.40454827  0.47387813    -0.78800
O212        O  0.49496127  0.28743951  0.39628247    -0.90500
O213        O  0.30317690  0.29799829  0.38084868    -0.76400
O214        O  0.34811093  0.36575495  0.41138688    -0.85900
O215        O  0.40545851  0.32561495  0.36347560    -0.85600
O216        O  0.44939682  0.39984104  0.42968691    -0.72400
O217        O  0.50384531  0.36097810  0.38555355    -0.84500
Zr218      Zr  0.41164764  0.44634039  0.34416260     2.26400
Zr219      Zr  0.36450920  0.42976746  0.42449739     2.06300
Zr220      Zr  0.47418278  0.35194252  0.33402865     2.10000
Zr221      Zr  0.32260705  0.35606633  0.35947563     1.78800
O222        O  0.56432334  0.35746552  0.31227554    -0.93300
O223        O  0.23206720  0.36361119  0.38067261    -0.41100
O224        O  0.39109255  0.38283100  0.32930785    -0.77800
O225        O  0.33816085  0.42020434  0.37221395    -0.96400
O226        O  0.43651358  0.45580143  0.39623618    -0.89700
O227        O  0.49477828  0.41537889  0.34786305    -0.92600
C228        C  0.32543145  0.27752424  0.39935895     1.01200
C229        C  0.51915884  0.27846331  0.37076923     1.14100
C230        C  0.38642430  0.37537331  0.48428737     1.04900
O231        O  0.27187657  0.42397968  0.44234761    -0.94700
O232        O  0.31680254  0.48411632  0.41102591    -0.90500
O233        O  0.34689212  0.99191285  0.36318112    -0.83600
C234        C  0.31868130  0.00210107  0.38698825     1.11500
O235        O  0.57922507  0.40068433  0.43718165    -0.96700
Zr236      Zr  0.51959206  0.42458189  0.40011257     1.88900
O237        O  0.47968171  0.99515844  0.34901205    -0.73400
O238        O  0.38320787  0.48376711  0.45924928    -0.52600
O239        O  0.53523599  0.46937488  0.44341548    -0.97300
O240        O  0.60827437  0.41425963  0.37697107    -0.54500
O241        O  0.54426425  0.48337594  0.38365714    -0.73900
C242        C  0.52057092  0.00436595  0.36592831     0.98500
O243        O  0.38480269  0.48462479  0.30417951    -0.62700
O244        O  0.45356978  0.29382897  0.30493876    -0.57500
O245        O  0.42059268  0.42705818  0.28929998    -0.94200
O246        O  0.45766377  0.37057340  0.28373830    -0.92600
O247        O  0.31268579  0.31335431  0.31428296    -0.93000
O248        O  0.25638458  0.37723973  0.32466285    -0.91800
C249        C  0.43773473  0.39864569  0.27267915     1.17300
H250        H  0.40186392  0.29967891  0.35743898     0.33200
H251        H  0.30419435  0.43166861  0.36876342     0.44100
H252        H  0.52155168  0.42473163  0.33435584     0.37600
H253        H  0.46155236  0.40308560  0.45039941     0.34100
H254        H  0.21361732  0.34006214  0.37445287     0.25900
H255        H  0.37052867  0.47761406  0.47962183     0.31800
H256        H  0.51821356  0.45869245  0.46109769     0.37700
H257        H  0.27687111  0.30176887  0.31681482     0.32200
H258        H  0.47519501  0.29346345  0.28595172     0.31100
H259        H  0.56036278  0.37256660  0.29480994     0.32800
H260        H  0.60780933  0.42641151  0.35770785     0.31700
H261        H  0.27800084  0.38582517  0.30754875     0.35700
H262        H  0.34492251  0.48431774  0.30427873     0.28500
H263        H  0.46765397  0.29173828  0.46218026     0.32700
H264        H  0.58505782  0.37471068  0.42961468     0.35500
H265        H  0.41562510  0.29558952  0.29871385     0.28200
H266        H  0.39501230  0.51004373  0.31167163     0.41000
H267        H  0.24958582  0.42813669  0.42446534     0.31100
H268        H  0.23653923  0.36336289  0.40296917     0.38700
H269        H  0.60869943  0.38765761  0.37042980     0.30500
H270        H  0.42291736  0.48539367  0.46054138     0.30600
H271        H  0.50529782  0.32679822  0.46438933     0.30900
C272        C  0.37701033  0.40003127  0.11831193    -0.02600
C273        C  0.42488741  0.40177476  0.06569438    -0.05900
C274        C  0.38621895  0.38396821  0.08311894     0.00000
C275        C  0.35990530  0.35311164  0.06535895    -0.08600
C276        C  0.35745882  0.35344981  0.03318654    -0.06000
C277        C  0.39101127  0.37614623  0.01744039     0.00000
C278        C  0.42940559  0.39789926  0.03378119    -0.08500
C279        C  0.47348176  0.41848069  0.01765013     0.61900
H280        H  0.45131895  0.42059672  0.07628393     0.12600
H281        H  0.33270141  0.33343419  0.01995843     0.12600
C282        C  0.34204258  0.31586584  0.07539506     0.62100
F283        F  0.50631465  0.43905187  0.03774240    -0.23000
F284        F  0.44745667  0.44304504  0.50013517    -0.20400
F285        F  0.50528213  0.39357057  0.00041086    -0.20000
F286        F  0.28773578  0.31057833  0.06983640    -0.20100
F287        F  0.35345189  0.31070704  0.10524486    -0.20400
F288        F  0.36815933  0.28834170  0.05762155    -0.23100
C289        C  0.22127498  0.20432903  0.40497539    -0.05900
C290        C  0.24206597  0.17368069  0.38584325     0.00000
C291        C  0.30069102  0.17654674  0.38059607    -0.08600
C292        C  0.32694877  0.21084330  0.38766319    -0.06000
C293        C  0.30097099  0.24108886  0.40190041     0.00000
C294        C  0.24976627  0.23666235  0.41401325    -0.08500
C295        C  0.22559732  0.26619734  0.43646444     0.61900
H296        H  0.18176061  0.20432579  0.41376914     0.12600
H297        H  0.36800934  0.21559278  0.38035048     0.12600
C298        C  0.33757522  0.14738839  0.36457912     0.62100
F299        F  0.17569130  0.25600252  0.44749787    -0.23000
F300        F  0.21949845  0.29848457  0.42275400    -0.20400
F301        F  0.25968158  0.27261321  0.46104534    -0.20000
F302        F  0.39031227  0.15946040  0.36158152    -0.20100
F303        F  0.32062330  0.13827861  0.33555419    -0.20400
F304        F  0.34057231  0.11686660  0.38063760    -0.23100
C305        C  0.24623969  0.09418481  0.40098269    -0.05900
C306        C  0.23107453  0.10318903  0.37131678     0.00000
C307        C  0.25136672  0.07619607  0.34696007    -0.08600
C308        C  0.26908746  0.04175783  0.35501955    -0.06000
C309        C  0.28382164  0.03490423  0.38433877     0.00000
C310        C  0.27162308  0.06158971  0.40812344    -0.08500
C311        C  0.28675070  0.05656717  0.44088873     0.61900
H312        H  0.24476434  0.11451188  0.41890461     0.12600
H313        H  0.27802426  0.02038334  0.33707099     0.12600
C314        C  0.26591447  0.07776277  0.31268350     0.62100
F315        F  0.27239533  0.08632218  0.46077611    -0.23000
F316        F  0.34183201  0.05219000  0.44279803    -0.20400
F317        F  0.26043763  0.02597558  0.45046768    -0.20000
F318        F  0.25471337  0.10886520  0.29904194    -0.20100
F319        F  0.24188152  0.04849847  0.29571496    -0.20400
F320        F  0.32102951  0.07286163  0.30909660    -0.23100
C321        C  0.14567447  0.15061555  0.28471950    -0.05900
C322        C  0.18028191  0.17704572  0.27402808     0.00000
C323        C  0.22340383  0.18931003  0.29227410    -0.08600
C324        C  0.22784551  0.17679240  0.32154277    -0.06000
C325        C  0.19300017  0.15027465  0.33432305     0.00000
C326        C  0.15605804  0.13289649  0.31153145    -0.08500
C327        C  0.13749081  0.09260901  0.30659422     0.61900
H328        H  0.11608678  0.13859655  0.26870076     0.12600
H329        H  0.26093450  0.18865773  0.33379056     0.12600
C330        C  0.26571205  0.21497437  0.28023693     0.62100
F331        F  0.16029518  0.07714453  0.27978827    -0.23000
F332        F  0.15105035  0.07113110  0.32914497    -0.20400
F333        F  0.08281509  0.08977595  0.30181323    -0.20000
F334        F  0.24109729  0.24643618  0.27212179    -0.20100
F335        F  0.29119968  0.19780233  0.25484957    -0.20400
F336        F  0.30477059  0.22519679  0.30159551    -0.23100
C337        C  0.24852164  0.33552567  0.12526340    -0.05900
C338        C  0.26213642  0.31653769  0.15028431     0.00000
C339        C  0.29641124  0.33481281  0.17174153    -0.08600
C340        C  0.32737600  0.36505132  0.16273376    -0.06000
C341        C  0.32913672  0.37549857  0.13233052     0.00000
C342        C  0.27812602  0.36707538  0.11746410    -0.08500
C343        C  0.24982047  0.39209603  0.09680937     0.61900
H344        H  0.21485620  0.32504060  0.11159013     0.12600
H345        H  0.34343675  0.38310967  0.18062833     0.12600
C346        C  0.29617685  0.32440831  0.20427889     0.62100
F347        F  0.20586744  0.37486235  0.08291465    -0.23000
F348        F  0.23152605  0.42270629  0.11430918    -0.20400
F349        F  0.28177901  0.40293039  0.07361786    -0.20000
F350        F  0.31954483  0.29038487  0.20547835    -0.20100
F351        F  0.24374198  0.32298514  0.21506682    -0.20400
F352        F  0.32362870  0.34995541  0.22334193    -0.23100
C353        C  0.29368326  0.49161920  0.10418401    -0.05900
C354        C  0.27686457  0.50391757  0.13348654     0.00000
C355        C  0.29497704  0.98461667  0.15738676    -0.08600
C356        C  0.32720797  0.45239868  0.15071825    -0.06000
C357        C  0.34795339  0.44033030  0.12097750     0.00000
C358        C  0.33435837  0.46533080  0.09773238    -0.08500
C359        C  0.36226107  0.47082916  0.06715303     0.61900
H360        H  0.27736539  0.50547421  0.08568069     0.12600
H361        H  0.34008332  0.43815993  0.16958154     0.12600
C362        C  0.28043983  0.99632833  0.19035443     0.62100
F363        F  0.41697120  0.47475485  0.07075905    -0.23000
F364        F  0.34779080  0.50313410  0.05500656    -0.20400
F365        F  0.34771621  0.44336235  0.04548176    -0.20000
F366        F  0.22565466  0.00231490  0.19318154    -0.20100
F367        F  0.30824638  0.02820458  0.19974001    -0.20400
F368        F  0.29348516  0.96984669  0.20969486    -0.23100
C369        C  0.17836622  0.15029205  0.44651364    -0.05900
C370        C  0.13490592  0.13960619  0.42638490     0.00000
C371        C  0.08812923  0.12578913  0.44356803    -0.08600
C372        C  0.09695981  0.11932542  0.97442615    -0.06000
C373        C  0.14058243  0.13075292  0.99204274     0.00000
C374        C  0.18519403  0.14564736  0.97779352    -0.08500
C375        C  0.23406654  0.15858909  0.99660214     0.61900
H376        H  0.21468366  0.16087363  0.43886559     0.12600
H377        H  0.06299044  0.10797108  0.98633704     0.12600
C378        C  0.02949564  0.12095424  0.43365843     0.62100
F379        F  0.26824136  0.17524939  0.47975355    -0.23000
F380        F  0.25415653  0.12954462  0.01106774    -0.20400
F381        F  0.21912646  0.18618507  0.01838171    -0.20000
F382        F  0.01654830  0.14155384  0.41072564    -0.20100
F383        F  0.99457552  0.13263992  0.45730970    -0.20400
F384        F  0.01832634  0.08434842  0.42561323    -0.23100
C385        C  0.43414932  0.36993778  0.18685240    -0.05900
C386        C  0.43959432  0.40386392  0.17313633     0.00000
C387        C  0.45415705  0.43403485  0.19548548    -0.08600
C388        C  0.43585011  0.43226821  0.22578808    -0.06000
C389        C  0.43541872  0.39851463  0.23861785     0.00000
C390        C  0.43786129  0.36623405  0.21826826    -0.08500
C391        C  0.44405172  0.32786096  0.22868522     0.61900
H392        H  0.42526036  0.34553502  0.17263237     0.12600
H393        H  0.43773472  0.45709566  0.24115770     0.12600
C394        C  0.50318304  0.46015511  0.19511273     0.62100
F395        F  0.43951538  0.30061108  0.20497300    -0.23000
F396        F  0.40475470  0.32119005  0.25001517    -0.20400
F397        F  0.49469876  0.32491895  0.24094133    -0.20000
F398        F  0.48604557  0.49598772  0.19506887    -0.20100
F399        F  0.53913187  0.45230342  0.17167306    -0.20400
F400        F  0.53025641  0.95927542  0.22223643    -0.23100
C401        C  0.02202023  0.07302393  0.35509705    -0.05900
C402        C  0.04097559  0.04083291  0.36619262     0.00000
C403        C  0.09067931  0.04254413  0.38140848    -0.08600
C404        C  0.11749242  0.07643660  0.38640785    -0.06000
C405        C  0.10049954  0.11026919  0.37585787     0.00000
C406        C  0.04991965  0.10765652  0.35866844    -0.08500
C407        C  0.02224248  0.13833897  0.34279344     0.61900
H408        H  0.98331038  0.07065567  0.34402622     0.12600
H409        H  0.15115292  0.07664126  0.40127023     0.12600
C410        C  0.11526292  0.50663620  0.39250563     0.62100
F411        F  0.98137094  0.12479583  0.32369379    -0.23000
F412        F  0.05710952  0.15523069  0.32418982    -0.20400
F413        F  0.99897352  0.16409077  0.36326951    -0.20000
F414        F  0.11299817  0.47727685  0.37048616    -0.20100
F415        F  0.08691397  0.49840786  0.41827532    -0.20400
F416        F  0.16856108  0.51172592  0.40065932    -0.23100
C417        C  0.06022470  0.22355260  0.35291774    -0.05900
C418        C  0.03360927  0.24264563  0.37759923     0.00000
C419        C  0.04357009  0.23200476  0.40723359    -0.08600
C420        C  0.07846370  0.20230116  0.41004930    -0.06000
C421        C  0.10775521  0.18453651  0.38475218     0.00000
C422        C  0.10957217  0.20675837  0.35865213    -0.08500
C423        C  0.14945143  0.23968149  0.35587154     0.61900
H424        H  0.05306976  0.23197928  0.33024464     0.12600
H425        H  0.08221872  0.19375308  0.43259256     0.12600
C426        C  0.01862474  0.25183051  0.43574661     0.62100
F427        F  0.14201925  0.25563768  0.32867465    -0.23000
F428        F  0.20253474  0.23213135  0.35588129    -0.20400
F429        F  0.14124655  0.26644443  0.37966633    -0.20000
F430        F  0.96317651  0.24819088  0.43486414    -0.20100
F431        F  0.03285950  0.28864492  0.43744162    -0.20400
F432        F  0.03573035  0.23783008  0.46222666    -0.23100
C433        C  0.83548050  0.38763478  0.16505593    -0.05900
C434        C  0.87152049  0.40992829  0.14882421     0.00000
C435        C  0.89870388  0.43730031  0.16925473    -0.08600
C436        C  0.91193633  0.42710939  0.19861040    -0.06000
C437        C  0.87852868  0.40299508  0.21363745     0.00000
C438        C  0.83683351  0.38461929  0.19666104    -0.08500
C439        C  0.79327934  0.36193890  0.21130886     0.61900
H440        H  0.80445314  0.37210872  0.15323621     0.12600
H441        H  0.94052390  0.44402261  0.21210526     0.12600
C442        C  0.88649366  0.47868663  0.17088420     0.62100
F443        F  0.75124700  0.35258904  0.19163623    -0.23000
F444        F  0.77159009  0.38185816  0.23660841    -0.20400
F445        F  0.81496285  0.32965620  0.21977285    -0.20000
F446        F  0.92751309  0.49798022  0.15803124    -0.20100
F447        F  0.88124012  0.49388549  0.20080095    -0.20400
F448        F  0.83810553  0.48540397  0.15758774    -0.23100
C449        C  0.75192196  0.08715318  0.32406119    -0.05900
C450        C  0.73777453  0.09617414  0.35529193     0.00000
C451        C  0.74916197  0.06682360  0.37440376    -0.08600
C452        C  0.74668069  0.03097907  0.36117932    -0.06000
C453        C  0.77046734  0.02363876  0.33252738     0.00000
C454        C  0.77347205  0.05248175  0.31315368    -0.08500
C455        C  0.79518563  0.54839372  0.27910156     0.61900
H456        H  0.75144333  0.10739101  0.30833848     0.12600
H457        H  0.74485810  0.00929427  0.37641857     0.12600
C458        C  0.78514850  0.06916360  0.40275261     0.62100
F459        F  0.78719965  0.57907115  0.26329933    -0.23000
F460        F  0.76899967  0.51896527  0.26365546    -0.20400
F461        F  0.84979307  0.54161457  0.27926046    -0.20000
F462        F  0.75652801  0.05930695  0.42790613    -0.20100
F463        F  0.80860653  0.10273554  0.40928931    -0.20400
F464        F  0.82788840  0.04505528  0.39813725    -0.23100
C465        C  0.73092058  0.20285863  0.37589693    -0.05900
C466        C  0.74919499  0.16891609  0.36193516     0.00000
C467        C  0.79963347  0.17104972  0.34469336    -0.08600
C468        C  0.81626548  0.20561858  0.33552952    -0.06000
C469        C  0.79377253  0.23828023  0.34821639     0.00000
C470        C  0.75083454  0.23705195  0.36914939    -0.08500
C471        C  0.72552295  0.27171412  0.38470450     0.61900
H472        H  0.70023524  0.20287016  0.39328317     0.12600
H473        H  0.85230024  0.20756439  0.32152047     0.12600
C474        C  0.84410565  0.14236563  0.33982392     0.62100
F475        F  0.67556491  0.26482062  0.39735593    -0.23000
F476        F  0.71918762  0.29765449  0.36400244    -0.20400
F477        F  0.75763555  0.28621924  0.40798410    -0.20000
F478        F  0.84798847  0.12971625  0.30940138    -0.20100
F479        F  0.83909913  0.11321381  0.35718415    -0.20400
F480        F  0.89280798  0.15871710  0.34826046    -0.23100
C481        C  0.54979086  0.47450193  0.10701849    -0.05900
C482        C  0.52272160  0.00742114  0.11666665     0.00000
C483        C  0.47146811  0.00641819  0.13003072    -0.08600
C484        C  0.44979757  0.97226854  0.13644192    -0.06000
C485        C  0.47423383  0.43719708  0.12621054     0.00000
C486        C  0.52609968  0.43969355  0.10931167    -0.08500
C487        C  0.56098607  0.40969286  0.09234397     0.61900
H488        H  0.59042182  0.47684434  0.09797276     0.12600
H489        H  0.41740183  0.97362136  0.15245441     0.12600
C490        C  0.44089268  0.04152705  0.13925211     0.62100
F491        F  0.58956203  0.42296114  0.06823405    -0.23000
F492        F  0.53125163  0.38141752  0.07917116    -0.20400
F493        F  0.59929673  0.39719371  0.11133082    -0.20000
F494        F  0.44240401  0.06433385  0.11568604    -0.20100
F495        F  0.46353703  0.05948805  0.16491713    -0.20400
F496        F  0.38753555  0.03451857  0.14590330    -0.23100
C497        C  0.46922510  0.30193085  0.13436026    -0.05900
C498        C  0.52158973  0.29972788  0.14601208     0.00000
C499        C  0.55082407  0.33318263  0.15188451    -0.08600
C500        C  0.52601574  0.36569892  0.14464298    -0.06000
C501        C  0.47734227  0.36606847  0.12775532     0.00000
C502        C  0.45988617  0.33017628  0.11530224    -0.08500
C503        C  0.48040751  0.31434730  0.08353845     0.61900
H504        H  0.44597766  0.27671495  0.13036315     0.12600
H505        H  0.54213318  0.39121470  0.15458514     0.12600
C506        C  0.60630498  0.33552978  0.16624301     0.62100
F507        F  0.53614121  0.31254789  0.08312964    -0.23000
F508        F  0.46560852  0.33406714  0.06005073    -0.20400
F509        F  0.46131919  0.27886522  0.07656106    -0.20000
F510        F  0.64343817  0.31788709  0.14663202    -0.20100
F511        F  0.60489837  0.31955502  0.19363793    -0.20400
F512        F  0.62386188  0.37152064  0.17218016    -0.23100
C513        C  0.67141580  0.10606757  0.41498013    -0.05900
C514        C  0.70673408  0.13321265  0.40404492     0.00000
C515        C  0.73852682  0.15355937  0.42821547    -0.08600
C516        C  0.72303317  0.15124129  0.45878067    -0.06000
C517        C  0.68672601  0.12525649  0.46883369     0.00000
C518        C  0.66209426  0.10093939  0.44635776    -0.08500
C519        C  0.62565514  0.06990247  0.45499117     0.61900
H520        H  0.65279673  0.08671717  0.39862615     0.12600
H521        H  0.74300434  0.16963666  0.47581720     0.12600
C522        C  0.79222662  0.17569349  0.42734557     0.62100
F523        F  0.60379672  0.05031553  0.42969705    -0.23000
F524        F  0.58357626  0.08386192  0.47311278    -0.20400
F525        F  0.65510121  0.04579011  0.47059692    -0.20000
F526        F  0.82338748  0.16935823  0.40178643    -0.20100
F527        F  0.82569754  0.16638082  0.45051068    -0.20400
F528        F  0.78211572  0.21287452  0.43244962    -0.23100
C529        C  0.86744324  0.97266827  0.10026708    -0.05900
C530        C  0.84099787  0.43842840  0.10192163     0.00000
C531        C  0.78236875  0.44259304  0.10252693    -0.08600
C532        C  0.75942581  0.47206062  0.08783727    -0.06000
C533        C  0.78765890  0.00595915  0.08803036     0.00000
C534        C  0.84333398  0.00587340  0.09451139    -0.08500
C535        C  0.87711357  0.04112182  0.09954666     0.61900
H536        H  0.90511881  0.97636841  0.10994417     0.12600
H537        H  0.71639238  0.47279190  0.08426562     0.12600
C538        C  0.74345745  0.42622711  0.12539553     0.62100
F539        F  0.93159834  0.03460508  0.10002352    -0.23000
F540        F  0.86463214  0.05919443  0.12759872    -0.20400
F541        F  0.86820944  0.06347864  0.07635610    -0.20000
F542        F  0.73892056  0.38879648  0.12184041    -0.20100
F543        F  0.69149819  0.43902737  0.12304477    -0.20400
F544        F  0.75928025  0.43715781  0.15471758    -0.23100
C545        C  0.76689164  0.32786122  0.08233502    -0.05900
C546        C  0.77698860  0.30178099  0.10315617     0.00000
C547        C  0.82628643  0.30397225  0.11846201    -0.08600
C548        C  0.85853017  0.33529981  0.11661176    -0.06000
C549        C  0.84487320  0.36603474  0.10081240     0.00000
C550        C  0.80125470  0.35882267  0.07930114    -0.08500
C551        C  0.78803527  0.37979284  0.05197330     0.61900
H552        H  0.73196300  0.32370349  0.06781246     0.12600
H553        H  0.89112556  0.33749964  0.13160760     0.12600
C554        C  0.84597880  0.27314839  0.13650146     0.62100
F555        F  0.73738823  0.39505911  0.05564238    -0.23000
F556        F  0.78717713  0.35562642  0.02601466    -0.20400
F557        F  0.82467291  0.40678569  0.04677117    -0.20000
F558        F  0.84850369  0.24093300  0.11770166    -0.20100
F559        F  0.81173882  0.26860483  0.16080403    -0.20400
F560        F  0.89683466  0.28016093  0.14811235    -0.23100
C561        C  0.56267757  0.10516290  0.36873422    -0.05900
C562        C  0.61177729  0.10453975  0.35161596     0.00000
C563        C  0.62325421  0.06873112  0.33536910    -0.08600
C564        C  0.59830398  0.03718289  0.34584598    -0.06000
C565        C  0.54975100  0.03923343  0.36182010     0.00000
C566        C  0.53051835  0.07383354  0.37288726    -0.08500
C567        C  0.47628799  0.07750177  0.38917232     0.61900
H568        H  0.54526052  0.13048624  0.37664549     0.12600
H569        H  0.61046774  0.01006146  0.33643819     0.12600
C570        C  0.63698806  0.06008970  0.30118264     0.62100
F571        F  0.46554881  0.11345805  0.39986638    -0.23000
F572        F  0.47540208  0.05639499  0.41382062    -0.20400
F573        F  0.43583915  0.06551631  0.36926602    -0.20000
F574        F  0.66704062  0.02835642  0.29702681    -0.20100
F575        F  0.66464178  0.08612501  0.28674378    -0.20400
F576        F  0.58943070  0.05328640  0.28545133    -0.23100
C577        C  0.63072949  0.21125058  0.34758377    -0.05900
C578        C  0.62045629  0.18010695  0.36473718     0.00000
C579        C  0.58390476  0.18932654  0.39050436    -0.08600
C580        C  0.54770573  0.21891970  0.38880321    -0.06000
C581        C  0.55497076  0.24584199  0.36832441     0.00000
C582        C  0.59960946  0.24284067  0.34824240    -0.08500
C583        C  0.61559076  0.27240289  0.32713640     0.61900
H584        H  0.66478281  0.21093106  0.33248907     0.12600
H585        H  0.51507694  0.22289085  0.40523169     0.12600
C586        C  0.58834479  0.17678449  0.42271898     0.62100
F587        F  0.66522202  0.26603843  0.31307283    -0.23000
F588        F  0.61878814  0.30631157  0.34362345    -0.20400
F589        F  0.57808607  0.27331160  0.30423040    -0.20000
F590        F  0.63840498  0.18622948  0.43374063    -0.20100
F591        F  0.57826606  0.14009453  0.42423959    -0.20400
F592        F  0.55239186  0.19457595  0.44317313    -0.23100
C593        C  0.59734806  0.16335433  0.26797490    -0.05900
C594        C  0.64511358  0.17086377  0.25293951     0.00000
C595        C  0.69368443  0.16814471  0.26812200    -0.08600
C596        C  0.69235593  0.15840768  0.29835564    -0.06000
C597        C  0.64544538  0.14772945  0.31450125     0.00000
C598        C  0.59507174  0.15148914  0.29771015    -0.08500
C599        C  0.53739349  0.14338936  0.30863249     0.61900
H600        H  0.56113058  0.16506856  0.25472516     0.12600
H601        H  0.72905347  0.16113988  0.30923356     0.12600
C602        C  0.74707056  0.17439830  0.25198119     0.62100
F603        F  0.49835021  0.15335560  0.28871850    -0.23000
F604        F  0.52551366  0.16293610  0.33582824    -0.20400
F605        F  0.52977908  0.10629476  0.31060614    -0.20000
F606        F  0.74920298  0.20964701  0.24284626    -0.20100
F607        F  0.75208155  0.14944738  0.22666414    -0.20400
F608        F  0.79071418  0.17005932  0.27051424    -0.23100
C609        C  0.04158737  0.31957388  0.09991175    -0.05900
C610        C  0.03171585  0.30506172  0.12786658     0.00000
C611        C  0.00325032  0.32732819  0.15065121    -0.08600
C612        C  0.97753186  0.35958796  0.14204536    -0.06000
C613        C  0.98266535  0.37117203  0.11211498     0.00000
C614        C  0.03029837  0.35636432  0.09693735    -0.08500
C615        C  0.08306095  0.37765018  0.09350498     0.61900
H616        H  0.07048632  0.30598422  0.08418526     0.12600
H617        H  0.95231539  0.37429902  0.15848767     0.12600
C618        C  0.00023969  0.31758133  0.18337323     0.62100
F619        F  0.11775081  0.36973262  0.11649853    -0.23000
F620        F  0.07868608  0.41514273  0.09535551    -0.20400
F621        F  0.10654583  0.36636115  0.06565654    -0.20000
F622        F  0.05118519  0.32041716  0.19569262    -0.20100
F623        F  0.98089524  0.28213168  0.18468549    -0.20400
F624        F  0.96691577  0.34104756  0.20108331    -0.23100
C625        C  0.99884142  0.44700613  0.12749314    -0.05900
C626        C  0.97349689  0.43673436  0.09911979     0.00000
C627        C  0.98063129  0.46279138  0.07570391    -0.08600
C628        C  0.01779282  0.49173488  0.08058499    -0.06000
C629        C  0.03994930  0.50131531  0.10896184     0.00000
C630        C  0.03168151  0.47839909  0.13278824    -0.08500
C631        C  0.05839636  0.48646957  0.16363088     0.61900
H632        H  0.99389735  0.42995248  0.14601550     0.12600
H633        H  0.02603084  0.01027524  0.06300331     0.12600
C634        C  0.94877801  0.46602759  0.04632031     0.62100
F635        F  0.05560456  0.45662898  0.18101280    -0.23000
F636        F  0.03310531  0.51552975  0.17984511    -0.20400
F637        F  0.11223670  0.49517811  0.15960672    -0.20000
F638        F  0.90714197  0.44151647  0.04195712    -0.20100
F639        F  0.98315176  0.46246613  0.02146407    -0.20400
F640        F  0.92669447  0.50051228  0.04633330    -0.23100
C641        C  0.99262918  0.39124588  0.04309360    -0.05900
C642        C  0.94650555  0.38211772  0.06066663     0.00000
C643        C  0.91475632  0.35423802  0.04401748    -0.08600
C644        C  0.89955900  0.36152208  0.51190587    -0.06000
C645        C  0.94209924  0.37546176  0.49476139     0.00000
C646        C  0.99088701  0.38390743  0.50989071    -0.08500
C647        C  0.04292952  0.39059126  0.49254254     0.61900
H648        H  0.02577111  0.40544553  0.05377496     0.12600
H649        H  0.86659562  0.34762368  0.49966334     0.12600
C650        C  0.91479874  0.31420467  0.05146802     0.62100
F651        F  0.08692223  0.39354414  0.51162858    -0.23000
F652        F  0.03986286  0.42278737  0.47848193    -0.20400
F653        F  0.05194269  0.36167605  0.47074416    -0.20000
F654        F  0.86344469  0.29943592  0.04975369    -0.20100
F655        F  0.93581637  0.30948045  0.07956319    -0.20400
F656        F  0.94661325  0.29386149  0.03028113    -0.23100
C657        C  0.93920124  0.39762006  0.59559837    -0.02600
C658        C  0.64861074  0.14013733  0.84969400    -0.02600
Zr659      Zr  0.64187461  0.09069749  0.57184753     2.17500
O660        O  0.59576008  0.04453346  0.53803103    -0.51500
O661        O  0.71222420  0.04277344  0.57267927    -0.74700
O662        O  0.65908612  0.09974105  0.51694241    -0.81900
O663        O  0.55679907  0.06123768  0.64001667    -0.83200
O664        O  0.69101519  0.15780641  0.51698630    -0.78800
O665        O  0.57706616  0.04645220  0.58997560    -0.90500
O666        O  0.77222055  0.06563755  0.60746571    -0.76400
O667        O  0.72221159  0.12730619  0.57558888    -0.85900
O668        O  0.67230909  0.09022890  0.62313241    -0.85600
O669        O  0.61373951  0.15187222  0.56238763    -0.72400
O670        O  0.57110757  0.11768709  0.60452961    -0.84500
Zr671      Zr  0.66225625  0.21398645  0.65104686     2.26400
Zr672      Zr  0.69443972  0.18831464  0.56713401     2.06300
Zr673      Zr  0.60330609  0.11745064  0.65528487     2.10000
Zr674      Zr  0.75229408  0.12680359  0.62675251     1.78800
O675        O  0.51394551  0.12546231  0.67814773    -0.93300
O676        O  0.83414978  0.14043712  0.59863608    -0.41100
O677        O  0.68484104  0.15251727  0.66042661    -0.77800
O678        O  0.73089636  0.18797418  0.61729573    -0.96400
O679        O  0.62771344  0.21598642  0.60082131    -0.89700
O680        O  0.58015892  0.17905949  0.64770179    -0.92600
C681        C  0.75527806  0.04011762  0.58850217     1.01200
C682        C  0.55291615  0.04067642  0.61517980     1.14100
C683        C  0.67764275  0.12702407  0.50299681     1.04900
O684        O  0.78545833  0.19316150  0.54645942    -0.94700
O685        O  0.73125992  0.24899402  0.57804726    -0.90500
O686        O  0.72036698  0.26126534  0.62935034    -0.83600
C687        C  0.73859997  0.26897037  0.60294461     1.11500
O688        O  0.47257071  0.15584282  0.56596747    -0.96700
Zr689      Zr  0.54778991  0.17972532  0.59712236     1.88900
O690        O  0.58955602  0.25792781  0.65629354    -0.73400
O691        O  0.65515043  0.22993427  0.53324761    -0.52600
O692        O  0.53223398  0.21289676  0.55234677    -0.97300
O693        O  0.46338857  0.17079180  0.62467503    -0.54500
O694        O  0.52853020  0.24082255  0.61987834    -0.73900
C695        C  0.54740053  0.26362780  0.64099896     0.98500
O696        O  0.70042408  0.25631678  0.69123460    -0.62700
O697        O  0.62654682  0.07177223  0.69021321    -0.57500
O698        O  0.66176814  0.19824231  0.70480880    -0.94200
O699        O  0.62118617  0.14227051  0.70570548    -0.92600
O700        O  0.77820154  0.09292946  0.66956653    -0.93000
O701        O  0.82094346  0.15397890  0.66103969    -0.91800
C702        C  0.64341427  0.17090118  0.71875937     1.17300
H703        H  0.67787651  0.06555417  0.62867910     0.33200
H704        H  0.76405579  0.20186819  0.61906063     0.44100
H705        H  0.55449108  0.18868620  0.66290651     0.37600
H706        H  0.59892991  0.15182862  0.54219076     0.34100
H707        H  0.86308425  0.12701767  0.60808694     0.25900
H708        H  0.68380523  0.23385036  0.51798954     0.31800
H709        H  0.54849963  0.23748136  0.55736179     0.37700
H710        H  0.74405029  0.08881608  0.68066293     0.32200
H711        H  0.59223632  0.06598482  0.70054664     0.31100
H712        H  0.51749675  0.11798452  0.69913693     0.32800
H713        H  0.46643180  0.18574618  0.64442996     0.31700
H714        H  0.81092914  0.18015141  0.66471916     0.35700
H715        H  0.73985229  0.25280459  0.68962922     0.28500
H716        H  0.62395544  0.03323310  0.52431042     0.32700
H717        H  0.44515241  0.17544368  0.56752450     0.35500
H718        H  0.63529244  0.04912911  0.67719822     0.28200
H719        H  0.69456319  0.28132773  0.68501209     0.41000
H720        H  0.79306591  0.16868181  0.53596964     0.31100
H721        H  0.82966616  0.12749133  0.57812755     0.38700
H722        H  0.46407525  0.14499594  0.62991226     0.30500
H723        H  0.62733006  0.21522940  0.52165883     0.30600
H724        H  0.57265861  0.05836694  0.52495227     0.30900
C725        C  0.71115403  0.13389091  0.86715548    -0.02600
Zr726      Zr  0.92802822  0.44304074  0.81743244     2.17500
O727        O  0.98023857  0.47693905  0.78152170    -0.51500
O728        O  0.85655086  0.48968278  0.82034372    -0.74700
O729        O  0.90532673  0.42687302  0.76346005    -0.81500
O730        O  0.00370334  0.48819170  0.88606808    -0.83200
O731        O  0.87205009  0.36868787  0.75851305    -0.78800
O732        O  0.98946238  0.49386150  0.83579460    -0.90500
O733        O  0.78238572  0.46012867  0.83582292    -0.76400
O734        O  0.84643160  0.40803970  0.82008987    -0.85900
O735        O  0.89576604  0.45333371  0.86884977    -0.85600
O736        O  0.95140681  0.37928308  0.80447653    -0.72400
O737        O  0.99679381  0.42015494  0.84907103    -0.84500
Zr738      Zr  0.90396181  0.33485464  0.89197979     2.26400
Zr739      Zr  0.86900475  0.34477127  0.80856164     2.06300
Zr740      Zr  0.96396601  0.43064909  0.90039983     2.10000
Zr741      Zr  0.81440897  0.41844870  0.87118592     1.78800
O742        O  0.05766980  0.42495982  0.91474508    -0.93300
O743        O  0.72283434  0.40043188  0.85635217    -0.41100
O744        O  0.88084912  0.39768475  0.90454227    -0.77800
O745        O  0.83504767  0.35547181  0.85975729    -0.96400
O746        O  0.93578814  0.32235996  0.84079523    -0.89700
O747        O  0.98680194  0.36759305  0.88872787    -0.92600
C748        C  0.80591057  0.48857624  0.82686545     1.01200
C749        C  0.01047976  0.50492419  0.86175680     1.14100
C750        C  0.88590797  0.39876125  0.74731912     1.04900
O751        O  0.77689359  0.34079722  0.79008633    -0.94700
O752        O  0.82981781  0.28706502  0.82334944    -0.90500
O753        O  0.84756897  0.28400493  0.87379652    -0.83600
C754        C  0.82607041  0.27180399  0.84859803     1.11500
O755        O  0.08871625  0.38222401  0.80736963    -0.96700
Zr756      Zr  0.01701345  0.35615464  0.83724138     1.88900
O757        O  0.96696464  0.28490097  0.89140626    -0.73400
O758        O  0.90116587  0.29518508  0.77251412    -0.52600
O759        O  0.02951955  0.31782920  0.78962425    -0.97300
O760        O  0.10717119  0.35779263  0.85870420    -0.54500
O761        O  0.03084090  0.29600547  0.85605156    -0.73900
C762        C  0.00913879  0.27603821  0.87566930     0.98500
O763        O  0.84765998  0.30695208  0.92976966    -0.62700
O764        O  0.94453916  0.47961907  0.94003061    -0.57500
O765        O  0.92774607  0.34859128  0.94546028    -0.94200
O766        O  0.95368256  0.40841383  0.95114865    -0.92600
O767        O  0.80313740  0.47043459  0.90906547    -0.93000
O768        O  0.75316034  0.39993539  0.91094367    -0.91800
C769        C  0.94269281  0.37747278  0.96188720     1.17300
H770        H  0.88982801  0.47913146  0.87441223     0.33200
H771        H  0.80198778  0.34195670  0.86230565     0.44100
H772        H  0.01251112  0.35936552  0.90293025     0.37600
H773        H  0.96565225  0.37619664  0.78391454     0.34100
H774        H  0.72152396  0.40238043  0.83406841     0.25900
H775        H  0.86841486  0.28540883  0.76192064     0.31800
H776        H  0.05466866  0.29842647  0.79464703     0.37700
H777        H  0.76435888  0.47073586  0.91453719     0.32200
H778        H  0.98025102  0.48929003  0.94676679     0.31100
H779        H  0.07771562  0.42231643  0.89511742     0.32800
H780        H  0.12504862  0.33578876  0.84865588     0.31700
H781        H  0.76609449  0.37551120  0.91562871     0.35700
H782        H  0.87155321  0.29268077  0.94212469     0.28500
H783        H  0.95357700  0.48919563  0.76933750     0.32700
H784        H  0.06974052  0.39667802  0.79281198     0.35500
H785        H  0.92852367  0.49953922  0.92927821     0.28200
H786        H  0.83327310  0.32718898  0.94386914     0.41000
H787        H  0.75430044  0.33795491  0.80843407     0.31100
H788        H  0.71991438  0.37371374  0.85839759     0.38700
H789        H  0.10219628  0.35210920  0.88016184     0.30500
H790        H  0.92200558  0.30720617  0.75676029     0.30600
H791        H  0.99741054  0.45819480  0.76706812     0.30900
C792        C  0.87301891  0.40333390  0.61113408    -0.02600
C793        C  0.43992821  0.40181994  0.63537743    -0.02600
C794        C  0.14214611  0.14369708  0.88850257    -0.02600
Zr795      Zr  0.14255019  0.21713913  0.67435372     2.17500
O796        O  0.08756859  0.24957843  0.71421513    -0.51500
O797        O  0.20426867  0.27055399  0.67057605    -0.74700
O798        O  0.16712831  0.20532885  0.72765297    -0.81500
O799        O  0.05685347  0.24634181  0.60911323    -0.83200
O800        O  0.21061428  0.15049010  0.72613688    -0.78800
O801        O  0.07938326  0.26354579  0.65824160    -0.90500
O802        O  0.26181189  0.25565573  0.63094884    -0.76400
O803        O  0.22717687  0.18651235  0.66706580    -0.85900
O804        O  0.16623025  0.22004933  0.62178026    -0.85600
O805        O  0.12687016  0.15359601  0.68374870    -0.72400
O806        O  0.07198745  0.18668867  0.64396746    -0.84500
Zr807      Zr  0.16648455  0.09755309  0.59388841     2.26400
Zr808      Zr  0.21164793  0.12278561  0.67487786     2.06300
Zr809      Zr  0.09785693  0.18886813  0.59161016     2.10000
Zr810      Zr  0.25129204  0.19093735  0.61504340     1.78800
O811        O  0.00409500  0.17737038  0.57790184    -0.93300
O812        O  0.33641482  0.19384027  0.64230485    -0.41100
O813        O  0.18329201  0.16014868  0.58393091    -0.77800
O814        O  0.23868698  0.12710189  0.62307992    -0.96400
O815        O  0.14129607  0.09328745  0.64564961    -0.89700
O816        O  0.08119907  0.12660251  0.60101344    -0.92600
C817        C  0.24137643  0.27868805  0.65134703     1.01200
C818        C  0.05553001  0.26885888  0.63307517     1.14100
C819        C  0.18998940  0.17892587  0.74043888     1.04900
O820        O  0.30700089  0.12911565  0.68670546    -0.94700
O821        O  0.24726390  0.06137047  0.66009613    -0.90500
O822        O  0.21964226  0.04797953  0.61158726    -0.83600
C823        C  0.24480756  0.03979680  0.63548809     1.11500
O824        O  0.98924064  0.15179695  0.68789195    -0.96700
Zr825      Zr  0.05769056  0.12370664  0.65348922     1.88900
O826        O  0.10198144  0.04713569  0.59560620    -0.73400
O827        O  0.18935940  0.07780878  0.71093489    -0.52600
O828        O  0.03998884  0.09565656  0.70093752    -0.97300
O829        O  0.97020570  0.12112259  0.62868129    -0.54500
O830        O  0.05036098  0.05847498  0.63829521    -0.73900
C831        C  0.06754243  0.03743151  0.61550734     0.98500
O832        O  0.21910633  0.06724711  0.55205611    -0.62700
O833        O  0.10832269  0.23231759  0.55275110    -0.57500
O834        O  0.14599352  0.10553011  0.54031990    -0.94200
O835        O  0.11380825  0.16352058  0.53953844    -0.92600
O836        O  0.26696018  0.22306871  0.56947513    -0.93000
O837        O  0.32478339  0.16582155  0.58286869    -0.91800
C838        C  0.13061753  0.13307586  0.52626595     1.17300
H839        H  0.16733678  0.24503705  0.61622564     0.33200
H840        H  0.27204608  0.11418026  0.61884943     0.44100
H841        H  0.05489215  0.11504568  0.58723449     0.37600
H842        H  0.11471260  0.15188789  0.70448714     0.34100
H843        H  0.35837521  0.21221973  0.63225985     0.25900
H844        H  0.21812427  0.08019934  0.72640222     0.31800
H845        H  0.00763177  0.08002091  0.69684493     0.37700
H846        H  0.23477654  0.23858553  0.56806270     0.32200
H847        H  0.07183918  0.24196246  0.54968917     0.31100
H848        H  0.99449981  0.19796818  0.56582241     0.32800
H849        H  0.94555844  0.11002585  0.64325682     0.31700
H850        H  0.30834580  0.14501878  0.57023508     0.35700
H851        H  0.25703349  0.06932780  0.55875904     0.28500
H852        H  0.11288732  0.26305789  0.72846262     0.32700
H853        H  0.00117591  0.17766313  0.69201758     0.35500
H854        H  0.12883377  0.25334680  0.56266130     0.28200
H855        H  0.21000218  0.04078705  0.55191014     0.41000
H856        H  0.31645851  0.10586539  0.69528168     0.31100
H857        H  0.32808432  0.20602379  0.66275893     0.38700
H858        H  0.97351180  0.10194933  0.61149774     0.30500
H859        H  0.15646677  0.08729457  0.72169126     0.30600
H860        H  0.07090040  0.23032305  0.72589713     0.30900
C861        C  0.20604946  0.14117363  0.86990900    -0.02600
Zr862      Zr  0.43558306  0.33643432  0.91485342     2.17500
O863        O  0.49391593  0.30875143  0.95075272    -0.51500
O864        O  0.37298933  0.28504562  0.91294763    -0.74700
O865        O  0.40824222  0.34849690  0.96800896    -0.81500
O866        O  0.51630598  0.29637932  0.84614465    -0.83200
O867        O  0.37089248  0.40543780  0.97348762    -0.78800
O868        O  0.49758116  0.28796507  0.89551841    -0.90500
O869        O  0.30680663  0.29731282  0.88001527    -0.76400
O870        O  0.35055212  0.36625873  0.91131159    -0.85900
O871        O  0.40801370  0.32615839  0.86335101    -0.85600
O872        O  0.45182153  0.40054149  0.92929733    -0.72400
O873        O  0.50617127  0.36142821  0.88499027    -0.84500
Zr874      Zr  0.41340797  0.44610034  0.84354162     2.26400
Zr875      Zr  0.36691781  0.43053097  0.92402675     2.06300
Zr876      Zr  0.47608143  0.35236710  0.83340698     2.10000
Zr877      Zr  0.32472212  0.35597905  0.85944069     1.78800
O878        O  0.56516684  0.35910933  0.81073204    -0.93300
O879        O  0.23552756  0.36590990  0.88197828    -0.41100
O880        O  0.39265526  0.38269021  0.82887972    -0.77800
O881        O  0.34022099  0.42020185  0.87188036    -0.96400
O882        O  0.43872279  0.45648688  0.89559167    -0.89700
O883        O  0.49688449  0.41563814  0.84724978    -0.92600
C884        C  0.32968410  0.27682920  0.89827846     1.01200
C885        C  0.52066070  0.27855043  0.86969272     1.14100
C886        C  0.38827847  0.37609613  0.98408191     1.04900
O887        O  0.27433863  0.42706707  0.94239080    -0.94700
O888        O  0.32051499  0.48517327  0.90949606    -0.90500
O889        O  0.35152793  0.99164467  0.86423011    -0.83600
C890        C  0.32318367  0.00132394  0.88811159     1.11500
O891        O  0.58336162  0.40050738  0.93520138    -0.96700
Zr892      Zr  0.52177034  0.42507683  0.89947437     1.88900
O893        O  0.48338528  0.99399368  0.84935154    -0.73400
O894        O  0.38410514  0.48430551  0.95936578    -0.52600
O895        O  0.54030655  0.46539087  0.94521940    -0.97300
O896        O  0.60849044  0.41649785  0.87368144    -0.54500
O897        O  0.54457055  0.48451423  0.88347829    -0.73900
C898        C  0.52542704  0.00239579  0.86546042     0.98500
O899        O  0.38432783  0.48321884  0.80323230    -0.62700
O900        O  0.45529999  0.29441005  0.80417363    -0.57500
O901        O  0.42094004  0.42726517  0.78882994    -0.94200
O902        O  0.45837494  0.37096040  0.78304789    -0.92600
O903        O  0.31382032  0.31164631  0.81529835    -0.93000
O904        O  0.25876209  0.37509980  0.82352620    -0.91800
C905        C  0.43770479  0.39892288  0.77211460     1.17300
H906        H  0.40472005  0.30021720  0.85727813     0.33200
H907        H  0.30627317  0.43172769  0.86850558     0.44100
H908        H  0.52380050  0.42498449  0.83380844     0.37600
H909        H  0.46420567  0.40380228  0.94999413     0.34100
H910        H  0.21519653  0.34318874  0.87550806     0.25900
H911        H  0.37223857  0.47753185  0.97971217     0.31800
H912        H  0.51742308  0.48713398  0.94354227     0.37700
H913        H  0.27574455  0.30343503  0.81617910     0.32200
H914        H  0.47698347  0.29408549  0.78521780     0.31100
H915        H  0.56384891  0.34375790  0.79109198     0.32800
H916        H  0.61808190  0.39072859  0.87631198     0.31700
H917        H  0.27185106  0.39940018  0.81806269     0.35700
H918        H  0.34462921  0.48049007  0.80237328     0.28500
H919        H  0.47024070  0.29311977  0.96261807     0.32700
H920        H  0.57267454  0.37436865  0.93557139     0.35500
H921        H  0.41742726  0.29637640  0.79788272     0.28200
H922        H  0.39092487  0.50911983  0.81092530     0.41000
H923        H  0.27274665  0.44527532  0.96038103     0.31100
H924        H  0.24061481  0.36484010  0.90416166     0.38700
H925        H  0.63406674  0.43151113  0.88671323     0.30500
H926        H  0.42375531  0.48662192  0.96047169     0.30600
H927        H  0.50609589  0.32903012  0.96551007     0.30900
C928        C  0.37632422  0.39979984  0.61764293    -0.02600
C929        C  0.42428478  0.40097246  0.56543207    -0.05900
C930        C  0.38580906  0.38317377  0.58283745     0.00000
C931        C  0.35966970  0.35204754  0.56538335    -0.08600
C932        C  0.35675809  0.35228601  0.53327474    -0.06000
C933        C  0.38983184  0.37520077  0.51748010     0.00000
C934        C  0.42852536  0.39692423  0.53359786    -0.08500
C935        C  0.47149127  0.41816916  0.51733144     0.61900
H936        H  0.45030290  0.42020560  0.57594676     0.12600
H937        H  0.33190721  0.33221533  0.52016812     0.12600
C938        C  0.34208738  0.31489851  0.57573806     0.62100
F939        F  0.50565930  0.43790587  0.53723572    -0.23000
F940        F  0.45122315  0.44258263  0.99902725    -0.20400
F941        F  0.50230467  0.39399796  0.49876757    -0.20000
F942        F  0.28774429  0.30944057  0.57045199    -0.20100
F943        F  0.35383932  0.31015814  0.60562836    -0.20400
F944        F  0.36805836  0.28725280  0.55800685    -0.23100
C945        C  0.22673870  0.20317552  0.90406878    -0.05900
C946        C  0.24791241  0.17237022  0.88556449     0.00000
C947        C  0.30672846  0.17507111  0.88063779    -0.08600
C948        C  0.33251091  0.20974010  0.88713103    -0.06000
C949        C  0.30582038  0.24020375  0.90067564     0.00000
C950        C  0.25454229  0.23576684  0.91259402    -0.08500
C951        C  0.22934568  0.26564030  0.93427693     0.61900
H952        H  0.18749999  0.20293041  0.91294717     0.12600
H953        H  0.37357682  0.21453643  0.87985403     0.12600
C954        C  0.34419548  0.14562927  0.86517892     0.62100
F955        F  0.18099948  0.25443550  0.94664706    -0.23000
F956        F  0.21980969  0.29651063  0.91919603    -0.20400
F957        F  0.26424350  0.27479171  0.95807663    -0.20000
F958        F  0.39714660  0.15766075  0.86325631    -0.20100
F959        F  0.32880246  0.13624248  0.83581044    -0.20400
F960        F  0.34648457  0.11505945  0.88115190    -0.23100
C961        C  0.25334421  0.09407900  0.90167540    -0.05900
C962        C  0.23631337  0.10201450  0.87197054     0.00000
C963        C  0.25416028  0.07380336  0.84809194    -0.08600
C964        C  0.26954215  0.03912568  0.85674365    -0.06000
C965        C  0.28765807  0.03367634  0.88572536     0.00000
C966        C  0.27955621  0.06178427  0.90893405    -0.08500
C967        C  0.30212776  0.05910751  0.94064930     0.61900
H968        H  0.25549379  0.11553843  0.91877536     0.12600
H969        H  0.27608975  0.01681191  0.83921550     0.12600
C970        C  0.27008648  0.07478511  0.81408018     0.62100
F971        F  0.29282092  0.09044933  0.95974961    -0.23000
F972        F  0.35724571  0.05410327  0.93863896    -0.20400
F973        F  0.27827645  0.02991116  0.95388264    -0.20000
F974        F  0.26088110  0.10610539  0.80033056    -0.20100
F975        F  0.24528241  0.04594674  0.79695295    -0.20400
F976        F  0.32502090  0.06875290  0.81122620    -0.23100
C977        C  0.15248075  0.15142858  0.78469782    -0.05900
C978        C  0.18843003  0.17707037  0.77397430     0.00000
C979        C  0.23235226  0.18804541  0.79210295    -0.08600
C980        C  0.23620243  0.17510900  0.82128768    -0.06000
C981        C  0.19979331  0.14935514  0.83411324     0.00000
C982        C  0.16217045  0.13307710  0.81127433    -0.08500
C983        C  0.14305908  0.09298122  0.80569646     0.61900
H984        H  0.12220269  0.14028556  0.76873533     0.12600
H985        H  0.26897604  0.18701863  0.83372374     0.12600
C986        C  0.27515865  0.21365221  0.78043090     0.62100
F987        F  0.16718775  0.07766788  0.77926286    -0.23000
F988        F  0.15476708  0.07112372  0.82828928    -0.20400
F989        F  0.08864497  0.09055693  0.79989810    -0.20000
F990        F  0.25090148  0.24516959  0.77217087    -0.20100
F991        F  0.30120754  0.19652433  0.75521817    -0.20400
F992        F  0.31367689  0.22386695  0.80213903    -0.23100
C993        C  0.24717457  0.33586015  0.62471536    -0.05900
C994        C  0.26055419  0.31730118  0.64996259     0.00000
C995        C  0.29458071  0.33567900  0.67136638    -0.08600
C996        C  0.32575548  0.36565345  0.66221551    -0.06000
C997        C  0.32803997  0.37559716  0.63165669     0.00000
C998        C  0.27712384  0.36707417  0.61659892    -0.08500
C999        C  0.24913637  0.39155232  0.59532880     0.61900
H1000       H  0.21354585  0.32521269  0.61108482     0.12600
H1001       H  0.34166267  0.38376859  0.68010021     0.12600
C1002       C  0.29375154  0.32553482  0.70396491     0.62100
F1003       F  0.20550880  0.37392198  0.58129205    -0.23000
F1004       F  0.23036470  0.42246701  0.61221855    -0.20400
F1005       F  0.28157345  0.40199882  0.57224931    -0.20000
F1006       F  0.31704611  0.29153012  0.70545773    -0.20100
F1007       F  0.24110915  0.32413334  0.71442929    -0.20400
F1008       F  0.32081328  0.35123278  0.72306378    -0.23100
C1009       C  0.29578167  0.49265042  0.60326628    -0.05900
C1010       C  0.27868430  0.50441066  0.63261752     0.00000
C1011       C  0.29294812  0.98411043  0.65666663    -0.08600
C1012       C  0.32709768  0.45223307  0.64948698    -0.06000
C1013       C  0.34751879  0.44005434  0.61974448     0.00000
C1014       C  0.33465926  0.46522266  0.59641436    -0.08500
C1015       C  0.36117492  0.46938959  0.56516169     0.61900
H1016       H  0.28044623  0.50755891  0.58514369     0.12600
H1017       H  0.33998693  0.43806402  0.66833297     0.12600
C1018       C  0.27872783  0.99589188  0.68966437     0.62100
F1019       F  0.41601052  0.47366650  0.56800556    -0.23000
F1020       F  0.34597797  0.50080307  0.55192828    -0.20400
F1021       F  0.34600048  0.44106499  0.54449240    -0.20000
F1022       F  0.22375679  0.00086517  0.69274841    -0.20100
F1023       F  0.30541580  0.02832755  0.69868752    -0.20400
F1024       F  0.29348084  0.96998916  0.70916157    -0.23100
C1025       C  0.18436288  0.14854316  0.94602003    -0.05900
C1026       C  0.14061499  0.13822146  0.92600229     0.00000
C1027       C  0.09323651  0.12552345  0.94314152    -0.08600
C1028       C  0.09283743  0.11849710  0.47464457    -0.06000
C1029       C  0.13555938  0.13135734  0.49246581     0.00000
C1030       C  0.17885870  0.14795866  0.47834586    -0.08500
C1031       C  0.22586327  0.16372003  0.49741249     0.61900
H1032       H  0.22012145  0.15987378  0.93841133     0.12600
H1033       H  0.05960865  0.10599683  0.48638174     0.12600
C1034       C  0.03518128  0.12055004  0.93242590     0.62100
F1035       F  0.27514576  0.17216625  0.97906698    -0.23000
F1036       F  0.24519876  0.13740467  0.51520871    -0.20400
F1037       F  0.20840768  0.19361358  0.51616899    -0.20000
F1038       F  0.02342066  0.14196168  0.90984731    -0.20100
F1039       F  0.99885868  0.13124019  0.95561612    -0.20400
F1040       F  0.02490530  0.08409125  0.92341736    -0.23100
C1041       C  0.43221487  0.37058535  0.68630355    -0.05900
C1042       C  0.43800324  0.40448048  0.67266294     0.00000
C1043       C  0.45136752  0.43490334  0.69515841    -0.08600
C1044       C  0.43325882  0.43272681  0.72543976    -0.06000
C1045       C  0.43389705  0.39892550  0.73812793     0.00000
C1046       C  0.43555812  0.36679013  0.71769340    -0.08500
C1047       C  0.44057703  0.32840844  0.72805955     0.61900
H1048       H  0.42370361  0.34620865  0.67192511     0.12600
H1049       H  0.43437379  0.45751759  0.74088534     0.12600
C1050       C  0.49879029  0.46236670  0.69491525     0.62100
F1051       F  0.43453941  0.30126510  0.70438362    -0.23000
F1052       F  0.40155506  0.32248826  0.74976189    -0.20400
F1053       F  0.49137976  0.32470882  0.73983793    -0.20000
F1054       F  0.47951622  0.49760903  0.69415733    -0.20100
F1055       F  0.53581396  0.45470674  0.67196475    -0.20400
F1056       F  0.52760081  0.96046023  0.72178937    -0.23100
C1057       C  0.02933699  0.07021656  0.85445920    -0.05900
C1058       C  0.04880493  0.03837986  0.86581656     0.00000
C1059       C  0.09809524  0.04062331  0.88136123    -0.08600
C1060       C  0.12411904  0.07484927  0.88635625    -0.06000
C1061       C  0.10645343  0.10854917  0.87560163     0.00000
C1062       C  0.05608586  0.10520775  0.85806972    -0.08500
C1063       C  0.02709806  0.13517619  0.84180730     0.61900
H1064       H  0.99073572  0.06727645  0.84331233     0.12600
H1065       H  0.15765231  0.07538034  0.90137965     0.12600
C1066       C  0.12007719  0.50703448  0.89067896     0.62100
F1067       F  0.98788453  0.12047108  0.82201809    -0.23000
F1068       F  0.06147082  0.15331643  0.82375773    -0.20400
F1069       F  0.00103716  0.16000663  0.86188276    -0.20000
F1070       F  0.12141023  0.47925724  0.86726856    -0.20100
F1071       F  0.09089995  0.49581519  0.91515391    -0.20400
F1072       F  0.17232029  0.51342455  0.90038817    -0.23100
C1073       C  0.05953131  0.22126385  0.85505455    -0.05900
C1074       C  0.03593854  0.24090574  0.88051518     0.00000
C1075       C  0.05020542  0.23125533  0.90980202    -0.08600
C1076       C  0.08636533  0.20197739  0.91163497    -0.06000
C1077       C  0.11207634  0.18319311  0.88534336     0.00000
C1078       C  0.10959466  0.20438118  0.85890930    -0.08500
C1079       C  0.14922203  0.23632886  0.85329726     0.61900
H1080       H  0.04969382  0.22952155  0.83265997     0.12600
H1081       H  0.09393511  0.19454119  0.93421511     0.12600
C1082       C  0.02768769  0.25134517  0.93887015     0.62100
F1083       F  0.14111228  0.24849660  0.82465488    -0.23000
F1084       F  0.20206522  0.22859664  0.85431669    -0.20400
F1085       F  0.14159252  0.26573273  0.87491752    -0.20000
F1086       F  0.97243468  0.24640104  0.94002606    -0.20100
F1087       F  0.03967760  0.28845149  0.93944349    -0.20400
F1088       F  0.04890849  0.23855179  0.96491480    -0.23100
C1089       C  0.83675057  0.38456424  0.66469262    -0.05900
C1090       C  0.87011526  0.40853487  0.64849516     0.00000
C1091       C  0.89653509  0.43633320  0.66901320    -0.08600
C1092       C  0.91003934  0.42672959  0.69858119    -0.06000
C1093       C  0.87908158  0.40116174  0.71353765     0.00000
C1094       C  0.83875089  0.38140343  0.69631800    -0.08500
C1095       C  0.79668101  0.35736982  0.71071439     0.61900
H1096       H  0.80617435  0.36851733  0.65291897     0.12600
H1097       H  0.93787923  0.44428291  0.71204411     0.12600
C1098       C  0.88642754  0.47788440  0.66932586     0.62100
F1099       F  0.75567054  0.34644673  0.69076862    -0.23000
F1100       F  0.77310636  0.37674045  0.73569310    -0.20400
F1101       F  0.82051147  0.32596319  0.71949750    -0.20000
F1102       F  0.92673025  0.49565453  0.65453962    -0.20100
F1103       F  0.88464501  0.49472887  0.69882590    -0.20400
F1104       F  0.83706175  0.48480786  0.65726659    -0.23100
C1105       C  0.75474399  0.08731383  0.82441024    -0.05900
C1106       C  0.73828940  0.09533382  0.85536235     0.00000
C1107       C  0.74784847  0.06520753  0.87407909    -0.08600
C1108       C  0.74840052  0.02969621  0.85991522    -0.06000
C1109       C  0.77575396  0.02403479  0.83214412     0.00000
C1110       C  0.77821301  0.05334732  0.81330919    -0.08500
C1111       C  0.79887100  0.54635586  0.77920489     0.61900
H1112       H  0.75422777  0.10801390  0.80909399     0.12600
H1113       H  0.74584750  0.00721406  0.87444872     0.12600
C1114       C  0.78029757  0.06671217  0.90367907     0.62100
F1115       F  0.79152000  0.57682946  0.76310114    -0.23000
F1116       F  0.77195907  0.51695478  0.76413888    -0.20400
F1117       F  0.85329404  0.53893158  0.77927017    -0.20000
F1118       F  0.74882484  0.05574415  0.92738684    -0.20100
F1119       F  0.80300217  0.10014188  0.91163939    -0.20400
F1120       F  0.82360157  0.04299199  0.90021851    -0.23100
C1121       C  0.72997052  0.20204992  0.87570369    -0.05900
C1122       C  0.74910572  0.16817566  0.86200462     0.00000
C1123       C  0.80029055  0.17045658  0.84541445    -0.08600
C1124       C  0.81774714  0.20521902  0.83711314    -0.06000
C1125       C  0.79482460  0.23773840  0.84976233     0.00000
C1126       C  0.75039608  0.23633559  0.86958859    -0.08500
C1127       C  0.72396527  0.27093330  0.88444663     0.61900
H1128       H  0.69841380  0.20191204  0.89258004     0.12600
H1129       H  0.85434250  0.20737797  0.82361562     0.12600
C1130       C  0.84464406  0.14153026  0.84065704     0.62100
F1131       F  0.67429616  0.26364272  0.89734168    -0.23000
F1132       F  0.71649945  0.29586657  0.86300599    -0.20400
F1133       F  0.75592336  0.28677294  0.90734711    -0.20000
F1134       F  0.84785469  0.12826276  0.81033850    -0.20100
F1135       F  0.83960126  0.11296370  0.85882540    -0.20400
F1136       F  0.89390319  0.15762828  0.84830815    -0.23100
C1137       C  0.54992934  0.47431023  0.60710563    -0.05900
C1138       C  0.52133158  0.00660093  0.61650758     0.00000
C1139       C  0.46934400  0.00571582  0.62887982    -0.08600
C1140       C  0.44747084  0.97177177  0.63557802    -0.06000
C1141       C  0.47372947  0.43712702  0.62562264     0.00000
C1142       C  0.52605914  0.43948823  0.60913088    -0.08500
C1143       C  0.56062313  0.40942551  0.59191598     0.61900
H1144       H  0.59077319  0.47677825  0.59840274     0.12600
H1145       H  0.41470622  0.97345230  0.65136359     0.12600
C1146       C  0.43789902  0.04071581  0.63670709     0.62100
F1147       F  0.59088667  0.42311463  0.56860308    -0.23000
F1148       F  0.53016802  0.38232753  0.57762557    -0.20400
F1149       F  0.59743863  0.39514238  0.61084090    -0.20000
F1150       F  0.44192953  0.06325514  0.61303014    -0.20100
F1151       F  0.45756620  0.05901622  0.66306023    -0.20400
F1152       F  0.38398563  0.03337922  0.64133859    -0.23100
C1153       C  0.46829919  0.30222220  0.63355455    -0.05900
C1154       C  0.52026009  0.29982190  0.64564911     0.00000
C1155       C  0.54888665  0.33326623  0.65268210    -0.08600
C1156       C  0.52477022  0.36596351  0.64519500    -0.06000
C1157       C  0.47694458  0.36641325  0.62752635     0.00000
C1158       C  0.45993069  0.33063525  0.61456277    -0.08500
C1159       C  0.48153131  0.31505872  0.58293101     0.61900
H1160       H  0.44523806  0.27701073  0.62902361     0.12600
H1161       H  0.54066074  0.39157104  0.65536176     0.12600
C1162       C  0.60298170  0.33522228  0.66849806     0.62100
F1163       F  0.53730572  0.31382154  0.58305814    -0.23000
F1164       F  0.46682239  0.33447599  0.55925979    -0.20400
F1165       F  0.46325413  0.27945078  0.57567085    -0.20000
F1166       F  0.64192023  0.31952826  0.64897538    -0.20100
F1167       F  0.59989810  0.31698671  0.69477812    -0.20400
F1168       F  0.61894994  0.37106841  0.67682971    -0.23100
C1169       C  0.67015780  0.10565631  0.91490385    -0.05900
C1170       C  0.70555115  0.13263982  0.90382426     0.00000
C1171       C  0.73654854  0.15353810  0.92799087    -0.08600
C1172       C  0.71979783  0.15245824  0.95844650    -0.06000
C1173       C  0.68375688  0.12648590  0.96869452     0.00000
C1174       C  0.66041923  0.10114615  0.94640388    -0.08500
C1175       C  0.62540379  0.06947084  0.95530584     0.61900
H1176       H  0.65193472  0.08596491  0.89865802     0.12600
H1177       H  0.73925225  0.17141055  0.97529005     0.12600
C1178       C  0.79148625  0.17406947  0.92723128     0.62100
F1179       F  0.60647296  0.04805307  0.93013535    -0.23000
F1180       F  0.58142686  0.08281521  0.97214610    -0.20400
F1181       F  0.65528162  0.04708853  0.97232372    -0.20000
F1182       F  0.82301939  0.16573251  0.90214480    -0.20100
F1183       F  0.82334679  0.16471146  0.95107830    -0.20400
F1184       F  0.78370070  0.21158793  0.93119149    -0.23100
C1185       C  0.86686412  0.97211412  0.59989414    -0.05900
C1186       C  0.83778008  0.43820112  0.60256733     0.00000
C1187       C  0.77929049  0.44315798  0.60560695    -0.08600
C1188       C  0.75515322  0.47321375  0.59219903    -0.06000
C1189       C  0.78671099  0.00518453  0.58772728     0.00000
C1190       C  0.84230774  0.00541317  0.59458452    -0.08500
C1191       C  0.87581379  0.04089546  0.59953532     0.61900
H1192       H  0.90483106  0.97552883  0.60919997     0.12600
H1193       H  0.71176854  0.47489005  0.59071873     0.12600
C1194       C  0.74210646  0.42574756  0.62885441     0.62100
F1195       F  0.93028109  0.03457125  0.60107807    -0.23000
F1196       F  0.86218035  0.05985794  0.62703987    -0.20400
F1197       F  0.86795689  0.06249783  0.57568919    -0.20000
F1198       F  0.73711795  0.38840212  0.62417609    -0.20100
F1199       F  0.69000415  0.43889374  0.62837352    -0.20400
F1200       F  0.76026475  0.43510645  0.65797788    -0.23100
C1201       C  0.76153404  0.32909131  0.58240203    -0.05900
C1202       C  0.77444757  0.30134450  0.60108508     0.00000
C1203       C  0.82594270  0.30181308  0.61362996    -0.08600
C1204       C  0.85685983  0.33394823  0.61353751    -0.06000
C1205       C  0.84135192  0.36597823  0.59989917     0.00000
C1206       C  0.79588320  0.36004036  0.57938154    -0.08500
C1207       C  0.78053184  0.38212218  0.55301482     0.61900
H1208       H  0.72482599  0.32602442  0.56925277     0.12600
H1209       H  0.89068031  0.33471836  0.62759546     0.12600
C1210       C  0.84926485  0.26799393  0.62624904     0.62100
F1211       F  0.73057351  0.39785339  0.55856196    -0.23000
F1212       F  0.77655052  0.35862876  0.52673050    -0.20400
F1213       F  0.81718785  0.40892300  0.54710564    -0.20000
F1214       F  0.84493010  0.23829893  0.60469419    -0.20100
F1215       F  0.82188405  0.26047489  0.65252273    -0.20400
F1216       F  0.90327412  0.27251373  0.63305572    -0.23100
C1217       C  0.56341325  0.10341839  0.86704287    -0.05900
C1218       C  0.61313166  0.10319312  0.85059436     0.00000
C1219       C  0.62665118  0.06739964  0.83508128    -0.08600
C1220       C  0.60256743  0.03573559  0.84575804    -0.06000
C1221       C  0.55387409  0.03735385  0.86154225     0.00000
C1222       C  0.53283566  0.07165180  0.87183152    -0.08500
C1223       C  0.47858611  0.07442990  0.88821187     0.61900
H1224       H  0.54462195  0.12858843  0.87411544     0.12600
H1225       H  0.61575970  0.00867751  0.83678236     0.12600
C1226       C  0.64231028  0.05852911  0.80120825     0.62100
F1227       F  0.46623323  0.11025899  0.89843108    -0.23000
F1228       F  0.47909091  0.05389335  0.91321349    -0.20400
F1229       F  0.43841923  0.06112641  0.86860689    -0.20000
F1230       F  0.67248515  0.02676052  0.79773777    -0.20100
F1231       F  0.67081442  0.08450709  0.78716862    -0.20400
F1232       F  0.59569620  0.05178890  0.78466027    -0.23100
C1233       C  0.63042480  0.20993286  0.84607504    -0.05900
C1234       C  0.61998061  0.17889040  0.86335445     0.00000
C1235       C  0.58251877  0.18802495  0.88872737    -0.08600
C1236       C  0.54746264  0.21835260  0.88720824    -0.06000
C1237       C  0.55523966  0.24522739  0.86673860     0.00000
C1238       C  0.59895975  0.24131679  0.84604760    -0.08500
C1239       C  0.61347839  0.26955332  0.82341538     0.61900
H1240       H  0.66510426  0.20975551  0.83150193     0.12600
H1241       H  0.51503722  0.22287858  0.90368610     0.12600
C1242       C  0.58525986  0.17469127  0.92073194     0.62100
F1243       F  0.66165869  0.26200925  0.80806984    -0.23000
F1244       F  0.61867902  0.30411732  0.83856904    -0.20400
F1245       F  0.57391746  0.26968409  0.80154693    -0.20000
F1246       F  0.63443207  0.18461443  0.93271348    -0.20100
F1247       F  0.57615317  0.13784472  0.92168379    -0.20400
F1248       F  0.54765831  0.19141112  0.94072926    -0.23100
C1249       C  0.59886355  0.16094110  0.76670016    -0.05900
C1250       C  0.64638662  0.17008561  0.75216744     0.00000
C1251       C  0.69478703  0.16870392  0.76776663    -0.08600
C1252       C  0.69357270  0.15783948  0.79772527    -0.06000
C1253       C  0.64666495  0.14624140  0.81351626     0.00000
C1254       C  0.59643560  0.14936494  0.79645311    -0.08500
C1255       C  0.53853356  0.14160285  0.80725352     0.61900
H1256       H  0.56282233  0.16171934  0.75316446     0.12600
H1257       H  0.72993834  0.16144367  0.80902964     0.12600
C1258       C  0.74771551  0.17852540  0.75261936     0.62100
F1259       F  0.49974600  0.15154072  0.78717249    -0.23000
F1260       F  0.52643317  0.16167269  0.83416310    -0.20400
F1261       F  0.53054384  0.10456971  0.80950866    -0.20000
F1262       F  0.74636991  0.21461120  0.74542338    -0.20100
F1263       F  0.75565234  0.15576398  0.72622108    -0.20400
F1264       F  0.79139191  0.17475448  0.77128502    -0.23100
C1265       C  0.03882958  0.31871421  0.60071894    -0.05900
C1266       C  0.02888667  0.30454364  0.62882161     0.00000
C1267       C  0.99896846  0.32646600  0.65105427    -0.08600
C1268       C  0.97396998  0.35885431  0.64209696    -0.06000
C1269       C  0.97939626  0.37023577  0.61194426     0.00000
C1270       C  0.02717818  0.35530702  0.59709898    -0.08500
C1271       C  0.07996399  0.37662594  0.59338259     0.61900
H1272       H  0.06814330  0.30507250  0.58530428     0.12600
H1273       H  0.94882048  0.37347416  0.65846471     0.12600
C1274       C  0.99231295  0.31538262  0.68330893     0.62100
F1275       F  0.11382200  0.37066461  0.61727016    -0.23000
F1276       F  0.07547285  0.41393061  0.59319607    -0.20400
F1277       F  0.10468656  0.36362965  0.56631997    -0.20000
F1278       F  0.04177686  0.31721257  0.69745142    -0.20100
F1279       F  0.97208181  0.27992938  0.68285329    -0.20400
F1280       F  0.95758022  0.33830856  0.70051820    -0.23100
C1281       C  0.99697944  0.44588938  0.62623590    -0.05900
C1282       C  0.97146255  0.43546803  0.59798528     0.00000
C1283       C  0.97975081  0.46073707  0.57410541    -0.08600
C1284       C  0.01776484  0.48934308  0.57864599    -0.06000
C1285       C  0.04129684  0.49853943  0.60680759     0.00000
C1286       C  0.03285169  0.47571668  0.63066442    -0.08500
C1287       C  0.06325095  0.48025377  0.66058544     0.61900
H1288       H  0.99163801  0.42945369  0.64520654     0.12600
H1289       H  0.02587906  0.01074581  0.56479849     0.12600
C1290       C  0.94710088  0.46385881  0.54497348     0.62100
F1291       F  0.08214525  0.44645351  0.66750918    -0.23000
F1292       F  0.02901855  0.49376705  0.68378034    -0.20400
F1293       F  0.10739764  0.50348786  0.65933255    -0.20000
F1294       F  0.90402550  0.44031751  0.54175945    -0.20100
F1295       F  0.98029129  0.45870020  0.51971149    -0.20400
F1296       F  0.92662030  0.49874588  0.54447838    -0.23100
C1297       C  0.98990772  0.38800870  0.54200962    -0.05900
C1298       C  0.94318001  0.38099592  0.55998594     0.00000
C1299       C  0.90716900  0.35622681  0.54319350    -0.08600
C1300       C  0.90831002  0.35723236  0.01221193    -0.06000
C1301       C  0.94790502  0.37505810  0.99543181     0.00000
C1302       C  0.99472637  0.38733270  0.01106918    -0.08500
C1303       C  0.04672134  0.39650698  0.99451812     0.61900
H1304       H  0.02408697  0.40140450  0.55214355     0.12600
H1305       H  0.87862093  0.34019311  0.99974423     0.12600
C1306       C  0.90803713  0.31541074  0.54781268     0.62100
F1307       F  0.08892119  0.40352082  0.01453579    -0.23000
F1308       F  0.04061502  0.42727340  0.97879203    -0.20400
F1309       F  0.06095151  0.36710585  0.97427138    -0.20000
F1310       F  0.85648625  0.30088805  0.54640553    -0.20100
F1311       F  0.93152101  0.30830891  0.57483206    -0.20400
F1312       F  0.93831663  0.29693198  0.52480215    -0.23100
C1313       C  0.94167058  0.89900904  0.09656335    -0.02600
C1314       C  0.64909138  0.64173953  0.35066578    -0.02600
Zr1315     Zr  0.64301005  0.59089134  0.07025665     2.17500
O1316       O  0.59057205  0.54774381  0.03694775    -0.51500
O1317       O  0.71219643  0.54208148  0.07065922    -0.74700
O1318       O  0.66177959  0.59847717  0.01568883    -0.81900
O1319       O  0.55868509  0.56206950  0.13900883    -0.83200
O1320       O  0.68659345  0.65814903  0.01488911    -0.78800
O1321       O  0.58082172  0.54587419  0.08948919    -0.90500
O1322       O  0.77441937  0.56658637  0.10332764    -0.76400
O1323       O  0.72242178  0.62851318  0.07260514    -0.85900
O1324       O  0.67660415  0.59049307  0.12072948    -0.85600
O1325       O  0.61337374  0.65205961  0.06123746    -0.72400
O1326       O  0.57372747  0.61724322  0.10398261    -0.84500
Zr1327     Zr  0.66315669  0.71336290  0.15008589     2.26400
Zr1328     Zr  0.69346276  0.68944396  0.06501670     2.06300
Zr1329     Zr  0.60862922  0.61652303  0.15411470     2.10000
Zr1330     Zr  0.75566612  0.62792350  0.12301362     1.78800
O1331       O  0.52175418  0.62498667  0.17986592    -0.93300
O1332       O  0.83503208  0.64094263  0.09235548    -0.41100
O1333       O  0.68959612  0.65243355  0.15856598    -0.77800
O1334       O  0.73104247  0.68874821  0.11491628    -0.96400
O1335       O  0.62739123  0.71572744  0.10004661    -0.89700
O1336       O  0.58230339  0.67771592  0.14706943    -0.92600
C1337       C  0.75636450  0.54013917  0.08563782     1.01200
C1338       C  0.55559533  0.54090172  0.11453524     1.14100
C1339       C  0.67685192  0.62631086  0.00144108     1.04900
O1340       O  0.78450625  0.69032233  0.04383437    -0.94700
O1341       O  0.73206902  0.74993869  0.07753032    -0.90500
O1342       O  0.72097995  0.76105052  0.12895434    -0.83600
C1343       C  0.73977560  0.76928867  0.10283334     1.11500
O1344       O  0.47467949  0.65488102  0.06445666    -0.96700
Zr1345     Zr  0.54811580  0.67890739  0.09689702     1.88900
O1346       O  0.58977077  0.75698183  0.15523581    -0.73400
O1347       O  0.65857689  0.73231748  0.03067595    -0.52600
O1348       O  0.52978892  0.71550028  0.05447428    -0.97300
O1349       O  0.46561006  0.66551628  0.12468710    -0.54500
O1350       O  0.52640013  0.73933143  0.12034208    -0.73900
C1351       C  0.54646879  0.76244865  0.14084323     0.98500
O1352       O  0.70053689  0.75531461  0.19075292    -0.62700
O1353       O  0.63749170  0.56764132  0.18470643    -0.57500
O1354       O  0.65986137  0.69650547  0.20400605    -0.94200
O1355       O  0.62513514  0.63879091  0.20520604    -0.92600
O1356       O  0.78254466  0.59638476  0.16691445    -0.93000
O1357       O  0.82994167  0.65577371  0.15275855    -0.91800
C1358       C  0.64412216  0.66850642  0.21817139     1.17300
H1359       H  0.68293097  0.56585974  0.12610981     0.33200
H1360       H  0.76409910  0.70275414  0.11648380     0.44100
H1361       H  0.55691039  0.68693975  0.16257916     0.37600
H1362       H  0.59768168  0.65185164  0.04123921     0.34100
H1363       H  0.86457989  0.62672948  0.10040360     0.25900
H1364       H  0.68677461  0.73376986  0.01470796     0.31800
H1365       H  0.55288746  0.73765077  0.05809461     0.37700
H1366       H  0.75378565  0.57786732  0.16937397     0.32200
H1367       H  0.60616142  0.56292143  0.19799627     0.31100
H1368       H  0.52428108  0.61132086  0.19828227     0.32800
H1369       H  0.46838185  0.67954851  0.14487037     0.31700
H1370       H  0.81733452  0.68070286  0.15984813     0.35700
H1371       H  0.73902217  0.74881188  0.19166717     0.28500
H1372       H  0.61725426  0.53341387  0.02414048     0.32700
H1373       H  0.44553372  0.67319250  0.06745345     0.35500
H1374       H  0.64033469  0.54515798  0.17056843     0.28200
H1375       H  0.70041001  0.78014838  0.18339323     0.41000
H1376       H  0.78102661  0.70187083  0.02440120     0.31100
H1377       H  0.82811288  0.62873620  0.07180111     0.38700
H1378       H  0.46870445  0.63945731  0.12894423     0.30500
H1379       H  0.62819013  0.71918676  0.02006033     0.30600
H1380       H  0.57140977  0.56278369  0.02293086     0.30900
C1381       C  0.71212903  0.63456571  0.36729454    -0.02600
Zr1382     Zr  0.92483056  0.94454578  0.31902610     2.17500
O1383       O  0.97826102  0.98049333  0.28512009    -0.51500
O1384       O  0.85118552  0.98943321  0.32123147    -0.74700
O1385       O  0.90513875  0.92878907  0.26473516    -0.81500
O1386       O  0.00310812  0.98836984  0.38714324    -0.83200
O1387       O  0.87149257  0.87073431  0.25990139    -0.78800
O1388       O  0.98277782  0.99681835  0.33808400    -0.90500
O1389       O  0.77739925  0.96086165  0.33865031    -0.76400
O1390       O  0.84389166  0.90879580  0.32150002    -0.85900
O1391       O  0.89225997  0.95423972  0.37036936    -0.85600
O1392       O  0.95057166  0.88126900  0.30586510    -0.72400
O1393       O  0.99420778  0.92195235  0.35035919    -0.84500
Zr1394     Zr  0.90303158  0.83582719  0.39267109     2.26400
Zr1395     Zr  0.86882110  0.84596430  0.30955286     2.06300
Zr1396     Zr  0.96113680  0.93195302  0.40161316     2.10000
Zr1397     Zr  0.81158248  0.91856615  0.37271599     1.78800
O1398       O  0.05367105  0.93017144  0.41882769    -0.93300
O1399       O  0.72050449  0.89936920  0.35780015    -0.41100
O1400       O  0.87876703  0.89827607  0.40580136    -0.77800
O1401       O  0.83363990  0.85596653  0.36056745    -0.96400
O1402       O  0.93566344  0.82397369  0.34175442    -0.89700
O1403       O  0.98532711  0.86915500  0.38993160    -0.92600
C1404       C  0.80093224  0.98875463  0.32868758     1.01200
C1405       C  0.00671086  0.00649634  0.36346433     1.14100
C1406       C  0.88588782  0.90063058  0.24862301     1.04900
O1407       O  0.77923791  0.83672276  0.28818158    -0.94700
O1408       O  0.82974541  0.78801536  0.32390622    -0.90500
O1409       O  0.84868927  0.78426130  0.37410018    -0.83600
C1410       C  0.82690407  0.77226925  0.34895483     1.11500
O1411       O  0.08884875  0.88351135  0.30873526    -0.96700
Zr1412     Zr  0.01646870  0.85821721  0.33867939     1.88900
O1413       O  0.96561288  0.78587732  0.39146017    -0.73400
O1414       O  0.90866617  0.79779485  0.27502380    -0.52600
O1415       O  0.03294784  0.81836131  0.29234258    -0.97300
O1416       O  0.10434873  0.86281506  0.36302829    -0.54500
O1417       O  0.02949334  0.79718118  0.35620841    -0.73900
C1418       C  0.00756161  0.77698889  0.37561442     0.98500
O1419       O  0.84872333  0.80695123  0.43069807    -0.62700
O1420       O  0.93410365  0.98111022  0.43947886    -0.57500
O1421       O  0.92745434  0.84885682  0.44591457    -0.94200
O1422       O  0.95485159  0.90838416  0.45177702    -0.92600
O1423       O  0.79623441  0.96978843  0.41094471    -0.93000
O1424       O  0.75392693  0.89901075  0.41369070    -0.91800
C1425       C  0.94330482  0.87747174  0.46231220     1.17300
H1426       H  0.88570062  0.97994959  0.37600221     0.33200
H1427       H  0.80090886  0.84203866  0.36288880     0.44100
H1428       H  0.01096786  0.86118228  0.40428072     0.37600
H1429       H  0.96515280  0.87845407  0.28536626     0.34100
H1430       H  0.72055903  0.89875240  0.33525939     0.25900
H1431       H  0.87844785  0.78806586  0.26215033     0.31800
H1432       H  0.06914978  0.80807567  0.29507111     0.37700
H1433       H  0.75700205  0.96961624  0.41523848     0.32200
H1434       H  0.96760217  0.98831308  0.45053426     0.31100
H1435       H  0.07473726  0.92187026  0.40034286     0.32800
H1436       H  0.12671067  0.84441987  0.35098854     0.31700
H1437       H  0.77017256  0.87593226  0.41933826     0.35700
H1438       H  0.87311272  0.79224573  0.44239561     0.28500
H1439       H  0.95190653  0.99317179  0.27304696     0.32700
H1440       H  0.07143544  0.90280664  0.29788137     0.35500
H1441       H  0.92592279  0.00231151  0.42776803     0.28200
H1442       H  0.83451374  0.82668472  0.44535974     0.41000
H1443       H  0.75462280  0.83753812  0.30608576     0.31100
H1444       H  0.71699869  0.87324300  0.36194453     0.38700
H1445       H  0.09920215  0.85239427  0.38291150     0.30500
H1446       H  0.93218733  0.81079001  0.26105271     0.30600
H1447       H  0.99609601  0.96245287  0.27032610     0.30900
C1448       C  0.87553700  0.90431599  0.11234750    -0.02600
C1449       C  0.43906508  0.90190115  0.13661621    -0.02600
C1450       C  0.13819149  0.64354011  0.38837350    -0.02600
Zr1451     Zr  0.14145312  0.71642210  0.17337263     2.17500
O1452       O  0.08305886  0.74740711  0.21233554    -0.51500
O1453       O  0.20234470  0.77024391  0.17022911    -0.74700
O1454       O  0.16454205  0.70581776  0.22690996    -0.81500
O1455       O  0.05936026  0.74715324  0.10863444    -0.83200
O1456       O  0.20575359  0.65024622  0.22610070    -0.78800
O1457       O  0.07962511  0.76363075  0.15816135    -0.90500
O1458       O  0.26157143  0.75501759  0.13147649    -0.76400
O1459       O  0.22655040  0.68609442  0.16653310    -0.85900
O1460       O  0.16566848  0.71933225  0.12078358    -0.85600
O1461       O  0.12570194  0.65301300  0.18300796    -0.72400
O1462       O  0.07109009  0.68627206  0.14267247    -0.84500
Zr1463     Zr  0.16665379  0.59665579  0.09351201     2.26400
Zr1464     Zr  0.21080553  0.62239649  0.17469393     2.06300
Zr1465     Zr  0.09738884  0.68839345  0.09045179     2.10000
Zr1466     Zr  0.25071381  0.69020523  0.11438286     1.78800
O1467       O  0.00364841  0.67741206  0.07631601    -0.93300
O1468       O  0.33695504  0.68762421  0.13995993    -0.41100
O1469       O  0.18279072  0.65935169  0.08335878    -0.77800
O1470       O  0.23840556  0.62642110  0.12287212    -0.96400
O1471       O  0.14062403  0.59292389  0.14514499    -0.89700
O1472       O  0.08111638  0.62591755  0.09996839    -0.92600
C1473       C  0.24026194  0.77829329  0.15148938     1.01200
C1474       C  0.05723306  0.76949967  0.13277746     1.14100
C1475       C  0.18565778  0.67913424  0.24008731     1.04900
O1476       O  0.30606287  0.62807171  0.18713177    -0.94700
O1477       O  0.24658157  0.56080282  0.16092211    -0.90500
O1478       O  0.22040184  0.54758667  0.11220683    -0.83600
C1479       C  0.24503302  0.53929711  0.13628266     1.11500
O1480       O  0.98837132  0.65355783  0.18556453    -0.96700
Zr1481     Zr  0.05688051  0.62350684  0.15238118     1.88900
O1482       O  0.10013282  0.54736199  0.09403526    -0.73400
O1483       O  0.19058898  0.57630509  0.21007533    -0.52600
O1484       O  0.04234159  0.59305029  0.19900059    -0.97300
O1485       O  0.96793566  0.62176198  0.12926470    -0.54500
O1486       O  0.04728800  0.55916211  0.13613572    -0.73900
C1487       C  0.06487789  0.53804212  0.11361058     0.98500
O1488       O  0.21563253  0.56145231  0.05261404    -0.62700
O1489       O  0.10649560  0.73156809  0.05128540    -0.57500
O1490       O  0.15343866  0.60676920  0.03961268    -0.94200
O1491       O  0.11479737  0.66287035  0.03849995    -0.92600
O1492       O  0.26997101  0.72361459  0.06986188    -0.93000
O1493       O  0.31877231  0.66539054  0.07822741    -0.91800
C1494       C  0.13545899  0.63346546  0.02542583     1.17300
H1495       H  0.16723036  0.74433419  0.11527683     0.33200
H1496       H  0.27184011  0.61354065  0.11879988     0.44100
H1497       H  0.05481029  0.61430751  0.08620867     0.37600
H1498       H  0.11292039  0.65135143  0.20363074     0.34100
H1499       H  0.35899708  0.70729558  0.13168546     0.25900
H1500       H  0.21785251  0.58007254  0.22632242     0.31800
H1501       H  0.00428317  0.58468456  0.19818964     0.37700
H1502       H  0.23822370  0.73943588  0.06808292     0.32200
H1503       H  0.07086538  0.74325721  0.05010613     0.31100
H1504       H  0.98904137  0.70210148  0.07391053     0.32800
H1505       H  0.94466778  0.60859520  0.14325332     0.31700
H1506       H  0.30492183  0.64075504  0.07085174     0.35700
H1507       H  0.25410905  0.56364987  0.05823809     0.28500
H1508       H  0.10698910  0.76229625  0.22648609     0.32700
H1509       H  0.00891813  0.66832771  0.20148588     0.35500
H1510       H  0.13065368  0.75130923  0.06012966     0.28200
H1511       H  0.20589891  0.53537782  0.05446833     0.41000
H1512       H  0.32486230  0.61274093  0.17073975     0.31100
H1513       H  0.32987629  0.69674525  0.16144996     0.38700
H1514       H  0.97100771  0.60449248  0.11076256     0.30500
H1515       H  0.15606962  0.58414520  0.21992085     0.30600
H1516       H  0.06794731  0.72790425  0.22433104     0.30900
C1517       C  0.20161249  0.64154598  0.36949245    -0.02600
Zr1518     Zr  0.43278948  0.83584344  0.41569459     2.17500
O1519       O  0.49138121  0.80591045  0.45003431    -0.51500
O1520       O  0.36951073  0.78491184  0.41496322    -0.74700
O1521       O  0.40800015  0.84878684  0.46895184    -0.81500
O1522       O  0.51659687  0.79697029  0.34846137    -0.83200
O1523       O  0.36775456  0.90484859  0.47456528    -0.78800
O1524       O  0.49534851  0.78757019  0.39727890    -0.90500
O1525       O  0.30583328  0.79607258  0.38026592    -0.76400
O1526       O  0.34782543  0.86571369  0.41254417    -0.85900
O1527       O  0.40535925  0.82535511  0.36412860    -0.85600
O1528       O  0.44882242  0.89997193  0.43049504    -0.72400
O1529       O  0.50318516  0.86097862  0.38587480    -0.84500
Zr1530     Zr  0.41103132  0.94550739  0.34454599     2.26400
Zr1531     Zr  0.36405102  0.93003747  0.42516277     2.06300
Zr1532     Zr  0.47379626  0.85166292  0.33434983     2.10000
Zr1533     Zr  0.32205406  0.85552872  0.36074012     1.78800
O1534       O  0.56261671  0.85873047  0.31123767    -0.93300
O1535       O  0.23372688  0.86279356  0.38499146    -0.41100
O1536       O  0.39008839  0.88202102  0.33004659    -0.77800
O1537       O  0.33760216  0.91990534  0.37290540    -0.96400
O1538       O  0.43585072  0.95566213  0.39663300    -0.89700
O1539       O  0.49464622  0.91501894  0.34836350    -0.92600
C1540       C  0.32743961  0.77611434  0.39935641     1.01200
C1541       C  0.52041229  0.77896768  0.37196887     1.14100
C1542       C  0.38658540  0.87581442  0.48500402     1.04900
O1543       O  0.27060580  0.92666464  0.44219092    -0.94700
O1544       O  0.31854480  0.98526908  0.41145400    -0.90500
O1545       O  0.34530717  0.49155124  0.36284103    -0.83600
C1546       C  0.31652008  0.50105056  0.38663291     1.11500
O1547       O  0.57617090  0.89626818  0.43665660    -0.96700
Zr1548     Zr  0.51881779  0.92442113  0.40078193     1.88900
O1549       O  0.48003313  0.49621752  0.34993967    -0.73400
O1550       O  0.38410779  0.98346951  0.46033754    -0.52600
O1551       O  0.53784405  0.96416270  0.44679204    -0.97300
O1552       O  0.60813313  0.91641161  0.37798158    -0.54500
O1553       O  0.53989921  0.98463207  0.38567675    -0.73900
C1554       C  0.52303624  0.50425047  0.36541589     0.98500
O1555       O  0.38295756  0.98301113  0.30428560    -0.62700
O1556       O  0.45897244  0.79296222  0.30494779    -0.57500
O1557       O  0.41710479  0.92547103  0.28981242    -0.94200
O1558       O  0.45411027  0.86898655  0.28389072    -0.92600
O1559       O  0.30994850  0.81366827  0.31521559    -0.93000
O1560       O  0.25158271  0.87530758  0.32791902    -0.91800
C1561       C  0.43371067  0.89705953  0.27302966     1.17300
H1562       H  0.40218411  0.79942331  0.35797686     0.33200
H1563       H  0.30385759  0.93167780  0.36945981     0.44100
H1564       H  0.52162043  0.92451488  0.33504560     0.37600
H1565       H  0.46128599  0.90337813  0.45115471     0.34100
H1566       H  0.21434699  0.83960395  0.37875981     0.25900
H1567       H  0.37135823  0.97718943  0.48066544     0.31800
H1568       H  0.57522634  0.97305711  0.44394794     0.37700
H1569       H  0.27498841  0.80125744  0.31853729     0.32200
H1570       H  0.48235579  0.79331312  0.28666944     0.31100
H1571       H  0.55761267  0.87550942  0.29499629     0.32800
H1572       H  0.61118039  0.93500882  0.36293361     0.31700
H1573       H  0.27118774  0.88674243  0.31137768     0.35700
H1574       H  0.34307819  0.98252577  0.30462943     0.28500
H1575       H  0.46730987  0.79132704  0.46256462     0.32700
H1576       H  0.58007875  0.87042836  0.42820670     0.35500
H1577       H  0.42167055  0.79379088  0.29743643     0.28200
H1578       H  0.39307079  0.00857932  0.31137940     0.41000
H1579       H  0.26881134  0.94361094  0.46097064     0.31100
H1580       H  0.24019752  0.86183947  0.40706034     0.38700
H1581       H  0.60589157  0.89262255  0.36546972     0.30500
H1582       H  0.42386513  0.98450922  0.46157408     0.30600
H1583       H  0.50607247  0.82579660  0.46435945     0.30900
C1584       C  0.37555649  0.90004132  0.11864929    -0.02600
C1585       C  0.42482572  0.90199611  0.06677045    -0.05900
C1586       C  0.38596771  0.88386255  0.08379947     0.00000
C1587       C  0.36094709  0.85251729  0.06605785    -0.08600
C1588       C  0.35933347  0.85268087  0.03391536    -0.06000
C1589       C  0.39325114  0.87544358  0.01850560     0.00000
C1590       C  0.43105873  0.89739471  0.03503600    -0.08500
C1591       C  0.47704049  0.91659713  0.01930531     0.61900
H1592       H  0.45004898  0.92159127  0.07741444     0.12600
H1593       H  0.33493877  0.83259656  0.02052423     0.12600
C1594       C  0.34293438  0.81539310  0.07623740     0.62100
F1595       F  0.51003359  0.93654515  0.03968515    -0.23000
F1596       F  0.45070701  0.94233693  0.50078910    -0.20400
F1597       F  0.50815501  0.89059723  0.00277468    -0.20000
F1598       F  0.28873993  0.81000984  0.07056311    -0.20100
F1599       F  0.35402448  0.81059905  0.10620642    -0.20400
F1600       F  0.36902007  0.78773107  0.05860509    -0.23100
C1601       C  0.22343115  0.70309593  0.40444366    -0.05900
C1602       C  0.24394064  0.67242377  0.38546354     0.00000
C1603       C  0.30278376  0.67486424  0.38059231    -0.08600
C1604       C  0.32919116  0.70925315  0.38722052    -0.06000
C1605       C  0.30343104  0.73950751  0.40163961     0.00000
C1606       C  0.25227219  0.73508720  0.41374187    -0.08500
C1607       C  0.22795455  0.76464894  0.43599062     0.61900
H1608       H  0.18385274  0.70325177  0.41301446     0.12600
H1609       H  0.37013465  0.71391093  0.37964385     0.12600
C1610       C  0.33992047  0.64512716  0.36566001     0.62100
F1611       F  0.17951321  0.75355951  0.44830444    -0.23000
F1612       F  0.21895291  0.79596300  0.42145626    -0.20400
F1613       F  0.26326975  0.77294668  0.45974253    -0.20000
F1614       F  0.39315245  0.65661643  0.36386139    -0.20100
F1615       F  0.32455928  0.63586525  0.33633727    -0.20400
F1616       F  0.34125227  0.61480033  0.38201566    -0.23100
C1617       C  0.24690395  0.59361174  0.40057868    -0.05900
C1618       C  0.23142302  0.60233296  0.37092721     0.00000
C1619       C  0.24972371  0.57467903  0.34677498    -0.08600
C1620       C  0.26482150  0.53975355  0.35497346    -0.06000
C1621       C  0.28074870  0.53330519  0.38420394     0.00000
C1622       C  0.27056317  0.56058129  0.40787453    -0.08500
C1623       C  0.28672516  0.55602831  0.44056255     0.61900
H1624       H  0.24919794  0.61476406  0.41790383     0.12600
H1625       H  0.27235463  0.51798811  0.33710830     0.12600
C1626       C  0.26594146  0.57657572  0.31289708     0.62100
F1627       F  0.27420664  0.58646373  0.46015953    -0.23000
F1628       F  0.34166309  0.55075144  0.44186609    -0.20400
F1629       F  0.25966909  0.52619622  0.45099081    -0.20000
F1630       F  0.25696002  0.60842689  0.29983865    -0.20100
F1631       F  0.24117195  0.54829613  0.29515256    -0.20400
F1632       F  0.32085731  0.57041611  0.31006248    -0.23100
C1633       C  0.14702782  0.65228978  0.28442388    -0.05900
C1634       C  0.18291294  0.67790709  0.27369761     0.00000
C1635       C  0.22586772  0.68981878  0.29221265    -0.08600
C1636       C  0.23008341  0.67673155  0.32136855    -0.06000
C1637       C  0.19447954  0.65032907  0.33389828     0.00000
C1638       C  0.15696785  0.63394421  0.31097278    -0.08500
C1639       C  0.13806841  0.59383246  0.30520931     0.61900
H1640       H  0.11698757  0.64097224  0.26837467     0.12600
H1641       H  0.26353901  0.68798645  0.33372693     0.12600
C1642       C  0.26844280  0.71543257  0.28045624     0.62100
F1643       F  0.16160083  0.57899278  0.27840243    -0.23000
F1644       F  0.15065573  0.57166565  0.32741947    -0.20400
F1645       F  0.08345598  0.59131764  0.29999158    -0.20000
F1646       F  0.24393596  0.74559639  0.26976920    -0.20100
F1647       F  0.29718325  0.69704716  0.25684926    -0.20400
F1648       F  0.30440818  0.72801168  0.30287333    -0.23100
C1649       C  0.24658176  0.83537985  0.12452983    -0.05900
C1650       C  0.25909579  0.81715202  0.15012434     0.00000
C1651       C  0.29127146  0.83643389  0.17207471    -0.08600
C1652       C  0.32282647  0.86639490  0.16301983    -0.06000
C1653       C  0.32670827  0.87574412  0.13226430     0.00000
C1654       C  0.27633429  0.86685947  0.11665550    -0.08500
C1655       C  0.24885631  0.89096345  0.09479185     0.61900
H1656       H  0.21379528  0.82427919  0.11044360     0.12600
H1657       H  0.33863699  0.88456528  0.18094044     0.12600
C1658       C  0.28816838  0.82724473  0.20495479     0.62100
F1659       F  0.20452202  0.87353795  0.08138418    -0.23000
F1660       F  0.23111831  0.92267917  0.11091115    -0.20400
F1661       F  0.28123228  0.90010165  0.07120840    -0.20000
F1662       F  0.30981788  0.79295498  0.20753051    -0.20100
F1663       F  0.23491311  0.82705866  0.21454973    -0.20400
F1664       F  0.31537053  0.85286112  0.22411573    -0.23100
C1665       C  0.29307318  0.99165447  0.10384729    -0.05900
C1666       C  0.27753100  0.00455060  0.13325117     0.00000
C1667       C  0.29467345  0.48395152  0.15762033    -0.08600
C1668       C  0.32647284  0.95270757  0.15049747    -0.06000
C1669       C  0.34672747  0.94025678  0.12076580     0.00000
C1670       C  0.33292927  0.96484732  0.09722168    -0.08500
C1671       C  0.36011846  0.96970740  0.06624458     0.61900
H1672       H  0.27634286  0.00538354  0.08539188     0.12600
H1673       H  0.33985158  0.93891738  0.16946387     0.12600
C1674       C  0.27885677  0.49500037  0.19053293     0.62100
F1675       F  0.41477870  0.97469223  0.06952874    -0.23000
F1676       F  0.34432039  0.00120499  0.05330649    -0.20400
F1677       F  0.34641054  0.94139282  0.04516967    -0.20000
F1678       F  0.22346554  0.49791072  0.19309453    -0.20100
F1679       F  0.30272243  0.52831000  0.19999126    -0.20400
F1680       F  0.29521361  0.46956486  0.21005665    -0.23100
C1681       C  0.18066382  0.64866030  0.44586451    -0.05900
C1682       C  0.13740592  0.63743363  0.42578770     0.00000
C1683       C  0.09123744  0.62310408  0.44293615    -0.08600
C1684       C  0.09875792  0.61746408  0.97387206    -0.06000
C1685       C  0.14074990  0.63173512  0.99168764     0.00000
C1686       C  0.18291586  0.64950586  0.97754660    -0.08500
C1687       C  0.22826165  0.66787032  0.99657554     0.61900
H1688       H  0.21648604  0.65986001  0.43832127     0.12600
H1689       H  0.06620476  0.60430069  0.98564528     0.12600
C1690       C  0.03261472  0.61899200  0.43328885     0.62100
F1691       F  0.26781795  0.67779166  0.47929360    -0.23000
F1692       F  0.25206599  0.64248411  0.01363114    -0.20400
F1693       F  0.20740914  0.69603259  0.01603403    -0.20000
F1694       F  0.02029454  0.64026502  0.41079442    -0.20100
F1695       F  0.99820196  0.63071593  0.45713679    -0.20400
F1696       F  0.02058651  0.58264699  0.42473072    -0.23100
C1697       C  0.42901863  0.86990409  0.18697789    -0.05900
C1698       C  0.43667362  0.90398031  0.17376962     0.00000
C1699       C  0.45194101  0.93366656  0.19648375    -0.08600
C1700       C  0.43383538  0.93147858  0.22677109    -0.06000
C1701       C  0.43095385  0.89743115  0.23904612     0.00000
C1702       C  0.43174920  0.86549758  0.21832075    -0.08500
C1703       C  0.43652310  0.82679879  0.22821926     0.61900
H1704       H  0.42013960  0.84582467  0.17223722     0.12600
H1705       H  0.43677140  0.95593666  0.24251743     0.12600
C1706       C  0.49984566  0.96079153  0.19608319     0.62100
F1707       F  0.43076992  0.80008793  0.20416605    -0.23000
F1708       F  0.39741132  0.82034168  0.24974588    -0.20400
F1709       F  0.48720595  0.82280489  0.24006750    -0.20000
F1710       F  0.48110786  0.99627499  0.19620502    -0.20100
F1711       F  0.53608824  0.95367374  0.17267046    -0.20400
F1712       F  0.53321725  0.45806982  0.22134225    -0.23100
C1713       C  0.02317835  0.57164436  0.35433440    -0.05900
C1714       C  0.04161918  0.53936851  0.36534410     0.00000
C1715       C  0.09152235  0.54060213  0.38026700    -0.08600
C1716       C  0.11896782  0.57438640  0.38529014    -0.06000
C1717       C  0.10197419  0.60863317  0.37520830     0.00000
C1718       C  0.05113714  0.60621664  0.35816256    -0.08500
C1719       C  0.02247413  0.63718489  0.34313894     0.61900
H1720       H  0.98435729  0.56937731  0.34340017     0.12600
H1721       H  0.15269217  0.57414641  0.40006051     0.12600
C1722       C  0.11534700  0.00903891  0.39388990     0.62100
F1723       F  0.98022274  0.62401277  0.32491917    -0.23000
F1724       F  0.05613884  0.65431081  0.32396197    -0.20400
F1725       F  0.00030572  0.66263264  0.36424828    -0.20000
F1726       F  0.11423538  0.97953976  0.37199277    -0.20100
F1727       F  0.08711856  0.00060082  0.41964527    -0.20400
F1728       F  0.16846250  0.01499229  0.40218298    -0.23100
C1729       C  0.05808085  0.72218773  0.35506077    -0.05900
C1730       C  0.03378003  0.74163756  0.38037825     0.00000
C1731       C  0.04688245  0.73143355  0.40974513    -0.08600
C1732       C  0.08154661  0.70126874  0.41166327    -0.06000
C1733       C  0.10842899  0.68313620  0.38550664     0.00000
C1734       C  0.10790819  0.70530203  0.35949970    -0.08500
C1735       C  0.14728181  0.73823643  0.35614496     0.61900
H1736       H  0.04908189  0.73054854  0.33258515     0.12600
H1737       H  0.08727234  0.69277672  0.43412321     0.12600
C1738       C  0.02641993  0.75275018  0.43875546     0.62100
F1739       F  0.13877043  0.75376054  0.32887913    -0.23000
F1740       F  0.20031250  0.73063966  0.35587924    -0.20400
F1741       F  0.13970463  0.76528390  0.37982339    -0.20000
F1742       F  0.97089901  0.75011413  0.44051208    -0.20100
F1743       F  0.04161646  0.78928336  0.43868966    -0.20400
F1744       F  0.04709539  0.73960874  0.46478233    -0.23100
C1745       C  0.83735072  0.88692972  0.16599904    -0.05900
C1746       C  0.87203162  0.91006138  0.14977000     0.00000
C1747       C  0.89884556  0.93759863  0.17028994    -0.08600
C1748       C  0.91182620  0.92783706  0.19987217    -0.06000
C1749       C  0.87995220  0.90270692  0.21479322     0.00000
C1750       C  0.83974940  0.88300638  0.19745821    -0.08500
C1751       C  0.79914448  0.85745230  0.21140429     0.61900
H1752       H  0.80642575  0.87135819  0.15424511     0.12600
H1753       H  0.93975882  0.94522286  0.21342421     0.12600
C1754       C  0.88829052  0.97913498  0.17104607     0.62100
F1755       F  0.75956751  0.84485327  0.19107681    -0.23000
F1756       F  0.77346631  0.87586494  0.23614983    -0.20400
F1757       F  0.82528387  0.82697932  0.22037306    -0.20000
F1758       F  0.92945000  0.99731181  0.15729054    -0.20100
F1759       F  0.88460693  0.99537104  0.20069942    -0.20400
F1760       F  0.83964453  0.98619517  0.15820898    -0.23100
C1761       C  0.75333059  0.58849964  0.32331986    -0.05900
C1762       C  0.73807109  0.59623535  0.35445990     0.00000
C1763       C  0.74724993  0.56583237  0.37265495    -0.08600
C1764       C  0.74356786  0.53057703  0.35834571    -0.06000
C1765       C  0.76912718  0.52414340  0.33007283     0.00000
C1766       C  0.77356401  0.55381252  0.31152357    -0.08500
C1767       C  0.79615156  0.04617297  0.28101313     0.61900
H1768       H  0.75445022  0.60972923  0.30845781     0.12600
H1769       H  0.74009434  0.50824172  0.37289464     0.12600
C1770       C  0.78339271  0.56646828  0.40076869     0.62100
F1771       F  0.78809031  0.07606684  0.26431849    -0.23000
F1772       F  0.77137054  0.01587266  0.26594993    -0.20400
F1773       F  0.85089839  0.04017708  0.28207286    -0.20000
F1774       F  0.75469612  0.55562607  0.42557561    -0.20100
F1775       F  0.80743725  0.59968871  0.40823548    -0.20400
F1776       F  0.82559307  0.54215701  0.39515312    -0.23100
C1777       C  0.73233398  0.70213453  0.37674429    -0.05900
C1778       C  0.75049795  0.66852602  0.36228115     0.00000
C1779       C  0.80102668  0.67090613  0.34511970    -0.08600
C1780       C  0.81803644  0.70574563  0.33673595    -0.06000
C1781       C  0.79582442  0.73814691  0.35013146     0.00000
C1782       C  0.75258132  0.73643518  0.37077210    -0.08500
C1783       C  0.72736935  0.77062299  0.38699489     0.61900
H1784       H  0.70163262  0.70174299  0.39408879     0.12600
H1785       H  0.85409730  0.70798942  0.32279396     0.12600
C1786       C  0.84549424  0.64224771  0.33982472     0.62100
F1787       F  0.67739839  0.76336850  0.39949302    -0.23000
F1788       F  0.72100908  0.79721941  0.36687256    -0.20400
F1789       F  0.75964308  0.78420329  0.41050570    -0.20000
F1790       F  0.84991572  0.63065732  0.30918265    -0.20100
F1791       F  0.84013961  0.61242643  0.35647137    -0.20400
F1792       F  0.89406153  0.65834708  0.34883902    -0.23100
C1793       C  0.54864278  0.97494553  0.10791516    -0.05900
C1794       C  0.52409604  0.50695820  0.11623958     0.00000
C1795       C  0.47291163  0.50592985  0.12975912    -0.08600
C1796       C  0.45137713  0.47175440  0.13598669    -0.06000
C1797       C  0.47294638  0.93758056  0.12719180     0.00000
C1798       C  0.52530034  0.94005624  0.11068593    -0.08500
C1799       C  0.56075549  0.90982714  0.09448853     0.61900
H1800       H  0.58944208  0.97745674  0.09919604     0.12600
H1801       H  0.41900795  0.47289656  0.15204201     0.12600
C1802       C  0.44135189  0.54079792  0.13848108     0.62100
F1803       F  0.59270395  0.92293443  0.07161348    -0.23000
F1804       F  0.53082803  0.88267376  0.07990365    -0.20400
F1805       F  0.59632787  0.89593941  0.11427693    -0.20000
F1806       F  0.44062164  0.56231403  0.11408833    -0.20100
F1807       F  0.46433048  0.56041426  0.16328776    -0.20400
F1808       F  0.38862199  0.53318378  0.14622066    -0.23100
C1809       C  0.46742478  0.80179872  0.13406238    -0.05900
C1810       C  0.51962562  0.79886734  0.14576792     0.00000
C1811       C  0.54857158  0.83222861  0.15286409    -0.08600
C1812       C  0.52358301  0.86524027  0.14675988    -0.06000
C1813       C  0.47603527  0.86626744  0.12887282     0.00000
C1814       C  0.45925669  0.83063711  0.11538840    -0.08500
C1815       C  0.48153375  0.81550764  0.08376143     0.61900
H1816       H  0.44407271  0.77676160  0.12929678     0.12600
H1817       H  0.53927643  0.89051334  0.15764156     0.12600
C1818       C  0.60452460  0.83373916  0.16652510     0.62100
F1819       F  0.53724829  0.81382070  0.08426065    -0.23000
F1820       F  0.46792326  0.83548773  0.06025646    -0.20400
F1821       F  0.46290535  0.78013013  0.07593268    -0.20000
F1822       F  0.64099634  0.81805154  0.14540575    -0.20100
F1823       F  0.60468634  0.81521781  0.19266069    -0.20400
F1824       F  0.62160925  0.86943017  0.17444154    -0.23100
C1825       C  0.67235571  0.60509259  0.41467536    -0.05900
C1826       C  0.70795603  0.63220133  0.40397177     0.00000
C1827       C  0.74032118  0.65177144  0.42832492    -0.08600
C1828       C  0.72498381  0.64912898  0.45886023    -0.06000
C1829       C  0.68743156  0.62390617  0.46859760     0.00000
C1830       C  0.66278882  0.59974556  0.44598205    -0.08500
C1831       C  0.62540685  0.56906340  0.45432424     0.61900
H1832       H  0.65320230  0.58619793  0.39819223     0.12600
H1833       H  0.74545793  0.66685752  0.47617516     0.12600
C1834       C  0.79416162  0.67357806  0.42757196     0.62100
F1835       F  0.60478549  0.54912039  0.42884209    -0.23000
F1836       F  0.58257744  0.58365237  0.47145857    -0.20400
F1837       F  0.65336270  0.54504249  0.47079381    -0.20000
F1838       F  0.82510809  0.66702529  0.40198204    -0.20100
F1839       F  0.82755851  0.66407986  0.45071020    -0.20400
F1840       F  0.78434234  0.71078603  0.43277783    -0.23100
C1841       C  0.86718125  0.47251565  0.10000832    -0.05900
C1842       C  0.84072561  0.93904496  0.10334491     0.00000
C1843       C  0.78220502  0.94379532  0.10521153    -0.08600
C1844       C  0.75890658  0.97330575  0.09079833    -0.06000
C1845       C  0.78764751  0.50511824  0.08585966     0.00000
C1846       C  0.84293446  0.50552138  0.09360997    -0.08500
C1847       C  0.87641322  0.54098927  0.09844487     0.61900
H1848       H  0.90440474  0.47636503  0.11042067     0.12600
H1849       H  0.71568198  0.97452956  0.08812533     0.12600
C1850       C  0.74421536  0.92775240  0.12871485     0.62100
F1851       F  0.93076186  0.53464438  0.10034938    -0.23000
F1852       F  0.86220614  0.56021248  0.12574275    -0.20400
F1853       F  0.86922171  0.56226545  0.07430558    -0.20000
F1854       F  0.73958564  0.89030679  0.12533502    -0.20100
F1855       F  0.69211439  0.94062039  0.12697848    -0.20400
F1856       F  0.76130387  0.93888015  0.15779082    -0.23100
C1857       C  0.76457818  0.82959906  0.08304481    -0.05900
C1858       C  0.77609920  0.80182324  0.10197536     0.00000
C1859       C  0.82602043  0.80308538  0.11665163    -0.08600
C1860       C  0.85759974  0.83507914  0.11646313    -0.06000
C1861       C  0.84382058  0.86666932  0.10157962     0.00000
C1862       C  0.79921889  0.86052325  0.08054759    -0.08500
C1863       C  0.78589571  0.88224522  0.05368026     0.61900
H1864       H  0.72883401  0.82643510  0.06907740     0.12600
H1865       H  0.89064436  0.83640178  0.13130127     0.12600
C1866       C  0.84726149  0.77020058  0.13167412     0.62100
F1867       F  0.73602075  0.89843487  0.05812942    -0.23000
F1868       F  0.78308376  0.85844450  0.02754627    -0.20400
F1869       F  0.82354059  0.90858439  0.04823944    -0.20000
F1870       F  0.84811449  0.73988799  0.11060805    -0.20100
F1871       F  0.81497020  0.76286645  0.15619332    -0.20400
F1872       F  0.89916803  0.77596273  0.14220435    -0.23100
C1873       C  0.56324678  0.60547094  0.36838194    -0.05900
C1874       C  0.61255522  0.60512116  0.35144968     0.00000
C1875       C  0.62498944  0.56950624  0.33529262    -0.08600
C1876       C  0.60064482  0.53775469  0.34578970    -0.06000
C1877       C  0.55188359  0.53934568  0.36158664     0.00000
C1878       C  0.53202177  0.57373485  0.37278578    -0.08500
C1879       C  0.47821621  0.57662247  0.38960049     0.61900
H1880       H  0.54510993  0.63082144  0.37591583     0.12600
H1881       H  0.61349250  0.51073087  0.33656898     0.12600
C1882       C  0.63698806  0.56170088  0.30082857     0.62100
F1883       F  0.46822258  0.61202349  0.40199019    -0.23000
F1884       F  0.47758998  0.55382937  0.41316652    -0.20400
F1885       F  0.43720157  0.56610226  0.36961126    -0.20000
F1886       F  0.66294501  0.52841592  0.29513646    -0.20100
F1887       F  0.66804116  0.58671410  0.28718744    -0.20400
F1888       F  0.58860984  0.55882676  0.28549446    -0.23100
C1889       C  0.63200223  0.71165231  0.34831625    -0.05900
C1890       C  0.62174926  0.68041152  0.36527807     0.00000
C1891       C  0.58569364  0.68945296  0.39133675    -0.08600
C1892       C  0.55031414  0.71972850  0.39038289    -0.06000
C1893       C  0.55674575  0.74648475  0.36961764     0.00000
C1894       C  0.60082582  0.74325061  0.34909591    -0.08500
C1895       C  0.61645863  0.77261814  0.32771901     0.61900
H1896       H  0.66610091  0.71134091  0.33325645     0.12600
H1897       H  0.51854535  0.72405400  0.40730056     0.12600
C1898       C  0.58968132  0.67550461  0.42308297     0.62100
F1899       F  0.66557701  0.76586399  0.31317303    -0.23000
F1900       F  0.62056125  0.80657650  0.34404097    -0.20400
F1901       F  0.57836949  0.77368107  0.30515074    -0.20000
F1902       F  0.63976745  0.68422576  0.43440496    -0.20100
F1903       F  0.57920251  0.63874288  0.42353205    -0.20400
F1904       F  0.55375566  0.69258580  0.44392612    -0.23100
C1905       C  0.59879986  0.66081201  0.26689281    -0.05900
C1906       C  0.64655226  0.66850111  0.25179252     0.00000
C1907       C  0.69489292  0.66727961  0.26746905    -0.08600
C1908       C  0.69336157  0.65927796  0.29824935    -0.06000
C1909       C  0.64652799  0.64844819  0.31450351     0.00000
C1910       C  0.59625329  0.65167010  0.29752097    -0.08500
C1911       C  0.53824822  0.64631437  0.30927629     0.61900
H1912       H  0.56268809  0.66081570  0.25333090     0.12600
H1913       H  0.72973182  0.66356414  0.30944551     0.12600
C1914       C  0.74825287  0.67300011  0.25115959     0.62100
F1915       F  0.49989757  0.65759480  0.28952537    -0.23000
F1916       F  0.52856533  0.66693802  0.33624475    -0.20400
F1917       F  0.52719086  0.60975965  0.31208956    -0.20000
F1918       F  0.74985743  0.70753654  0.24057304    -0.20100
F1919       F  0.75370725  0.64678069  0.22672601    -0.20400
F1920       F  0.79184733  0.67005158  0.27001903    -0.23100
C1921       C  0.04000292  0.81938326  0.10048914    -0.05900
C1922       C  0.03101230  0.80545269  0.12878002     0.00000
C1923       C  0.00269663  0.82807748  0.15142006    -0.08600
C1924       C  0.97668047  0.86004215  0.14242093    -0.06000
C1925       C  0.98165737  0.87130667  0.11233456     0.00000
C1926       C  0.02886182  0.85608648  0.09710001    -0.08500
C1927       C  0.08163905  0.87710445  0.09296497     0.61900
H1928       H  0.06852425  0.80553141  0.08468638     0.12600
H1929       H  0.95193856  0.87498333  0.15888126     0.12600
C1930       C  0.99971305  0.81893897  0.18433765     0.62100
F1931       F  0.11677037  0.86967204  0.11585177    -0.23000
F1932       F  0.07769216  0.91459260  0.09424434    -0.20400
F1933       F  0.10442920  0.86501861  0.06513823    -0.20000
F1934       F  0.05060567  0.82202327  0.19677914    -0.20100
F1935       F  0.98035105  0.78356790  0.18600501    -0.20400
F1936       F  0.96620107  0.84258437  0.20176605    -0.23100
C1937       C  0.99965728  0.94694419  0.12755100    -0.05900
C1938       C  0.97390954  0.93695903  0.09926469     0.00000
C1939       C  0.98180802  0.96283879  0.07572111    -0.08600
C1940       C  0.01930691  0.99157893  0.08063417    -0.06000
C1941       C  0.04179971  0.00080331  0.10892742     0.00000
C1942       C  0.03400109  0.97760966  0.13254038    -0.08500
C1943       C  0.06475357  0.98381890  0.16223534     0.61900
H1944       H  0.99430617  0.93000485  0.14611299     0.12600
H1945       H  0.02422636  0.51036072  0.06288017     0.12600
C1946       C  0.95039575  0.96638107  0.04622622     0.62100
F1947       F  0.05794953  0.95496682  0.18042704    -0.23000
F1948       F  0.04731521  0.01531564  0.17873277    -0.20400
F1949       F  0.11917833  0.98721706  0.15583453    -0.20000
F1950       F  0.90774905  0.94264722  0.04190959    -0.20100
F1951       F  0.98499899  0.96195769  0.02145558    -0.20400
F1952       F  0.92967826  0.00128852  0.04604168    -0.23100
C1953       C  0.99232885  0.89085122  0.04293444    -0.05900
C1954       C  0.94573716  0.88304020  0.06088057     0.00000
C1955       C  0.91162435  0.85672668  0.04434705    -0.08600
C1956       C  0.90744867  0.85863695  0.51240568    -0.06000
C1957       C  0.94837984  0.87496984  0.49567639     0.00000
C1958       C  0.99546733  0.88647762  0.51124007    -0.08500
C1959       C  0.04756758  0.89466584  0.49437639     0.61900
H1960       H  0.02616780  0.90490535  0.05292424     0.12600
H1961       H  0.87685155  0.84249549  0.49988705     0.12600
C1962       C  0.91199043  0.81644110  0.05067864     0.62100
F1963       F  0.09086035  0.89881125  0.51390993    -0.23000
F1964       F  0.04312494  0.92672067  0.48017891    -0.20400
F1965       F  0.05888416  0.86600450  0.47270522    -0.20000
F1966       F  0.86064454  0.80171327  0.04840168    -0.20100
F1967       F  0.93291680  0.81081807  0.07862458    -0.20400
F1968       F  0.94425098  0.79698944  0.02919973    -0.23100
C1969       C  0.94192441  0.89816449  0.59663469    -0.02600
C1970       C  0.65112220  0.64120742  0.84982179    -0.02600
Zr1971     Zr  0.64064571  0.59169898  0.57129000     2.17500
O1972       O  0.59338998  0.54664208  0.53699455    -0.51500
O1973       O  0.70970011  0.54307861  0.57317253    -0.74700
O1974       O  0.65949668  0.59923535  0.51665507    -0.81900
O1975       O  0.56179745  0.55997263  0.64004263    -0.83200
O1976       O  0.68744888  0.65822116  0.51619540    -0.78800
O1977       O  0.57610190  0.54756624  0.58910897    -0.90500
O1978       O  0.77316168  0.56735375  0.60530852    -0.76400
O1979       O  0.71941525  0.62996245  0.57366965    -0.85900
O1980       O  0.67422414  0.59119695  0.62178801    -0.85600
O1981       O  0.60937698  0.65233191  0.56212558    -0.72400
O1982       O  0.57071833  0.61714795  0.60524901    -0.84500
Zr1983     Zr  0.65973630  0.71398595  0.65066111     2.26400
Zr1984     Zr  0.68839266  0.69053019  0.56605154     2.06300
Zr1985     Zr  0.60622629  0.61674566  0.65529065     2.10000
Zr1986     Zr  0.75290881  0.62888150  0.62408414     1.78800
O1987       O  0.52036757  0.62524264  0.68216137    -0.93300
O1988       O  0.83318960  0.64221473  0.59441305    -0.41100
O1989       O  0.68634220  0.65313575  0.65908673    -0.77800
O1990       O  0.72769154  0.68951053  0.61554610    -0.96400
O1991       O  0.62232958  0.71648300  0.60108813    -0.89700
O1992       O  0.57899764  0.67770951  0.64810210    -0.92600
C1993       C  0.75404524  0.54089929  0.58794243     1.01200
C1994       C  0.55507863  0.54065372  0.61482800     1.14100
C1995       C  0.67662206  0.62666288  0.50254939     1.04900
O1996       O  0.77410863  0.70148323  0.54083766    -0.94700
O1997       O  0.72856914  0.75034167  0.57850213    -0.90500
O1998       O  0.71830299  0.76183170  0.62993125    -0.83600
C1999       C  0.73722807  0.76965883  0.60365842     1.11500
O2000       O  0.47114565  0.65236469  0.56611903    -0.96700
Zr2001     Zr  0.54391531  0.67857947  0.59808389     1.88900
O2002       O  0.58655388  0.75746971  0.65577436    -0.73400
O2003       O  0.64056210  0.73076090  0.53436785    -0.52600
O2004       O  0.52509654  0.71466921  0.55543681    -0.97300
O2005       O  0.45992774  0.66568175  0.62465886    -0.54500
O2006       O  0.52141233  0.73858913  0.62234285    -0.73900
C2007       C  0.54223317  0.76223977  0.64219769     0.98500
O2008       O  0.69549152  0.75337157  0.69342477    -0.62700
O2009       O  0.63451187  0.56959144  0.68775488    -0.57500
O2010       O  0.65818022  0.69827406  0.70444435    -0.94200
O2011       O  0.62721093  0.63962745  0.70568541    -0.92600
O2012       O  0.78089532  0.59809473  0.66819826    -0.93000
O2013       O  0.82205824  0.65774675  0.65712298    -0.91800
C2014       C  0.64500973  0.66978871  0.71849246     1.17300
H2015       H  0.68064137  0.56661328  0.62723485     0.33200
H2016       H  0.76073994  0.70352030  0.61703859     0.44100
H2017       H  0.55350004  0.68682661  0.66360312     0.37600
H2018       H  0.59405080  0.65193064  0.54201906     0.34100
H2019       H  0.86224629  0.62788657  0.60283670     0.25900
H2020       H  0.66897721  0.74102347  0.52150294     0.31800
H2021       H  0.54344059  0.73852655  0.56057931     0.37700
H2022       H  0.75843175  0.57551833  0.66777819     0.32200
H2023       H  0.60089751  0.56080942  0.69717758     0.31100
H2024       H  0.52353598  0.61112175  0.70028851     0.32800
H2025       H  0.46165742  0.68051981  0.64452836     0.31700
H2026       H  0.80251511  0.67632969  0.67063015     0.35700
H2027       H  0.73471123  0.74883158  0.69307064     0.28500
H2028       H  0.62152648  0.53403848  0.52401863     0.32700
H2029       H  0.44376815  0.67187417  0.56592869     0.35500
H2030       H  0.64672123  0.54852346  0.67384220     0.28200
H2031       H  0.69200940  0.77885487  0.68776985     0.41000
H2032       H  0.80157959  0.69844120  0.55654083     0.31100
H2033       H  0.82690491  0.63002778  0.57377980     0.38700
H2034       H  0.46311219  0.63993838  0.62979297     0.30500
H2035       H  0.61944823  0.71412795  0.51998481     0.30600
H2036       H  0.57226315  0.56090742  0.52326786     0.30900
C2037       C  0.71405191  0.63383786  0.86658897    -0.02600
Zr2038     Zr  0.92943729  0.94436748  0.81852630     2.17500
O2039       O  0.98064264  0.97977302  0.78325158    -0.51500
O2040       O  0.85845895  0.99130141  0.82183126    -0.74700
O2041       O  0.90744578  0.92922558  0.76437601    -0.81500
O2042       O  0.00970528  0.98664128  0.88715674    -0.83200
O2043       O  0.87332657  0.87127551  0.75914992    -0.78800
O2044       O  0.99146137  0.99420631  0.83763234    -0.90500
O2045       O  0.78457354  0.96095840  0.83634600    -0.76400
O2046       O  0.84786068  0.90927446  0.82076707    -0.85900
O2047       O  0.89747950  0.95440466  0.87001470    -0.85600
O2048       O  0.95304237  0.88076143  0.80509695    -0.72400
O2049       O  0.99810233  0.92093043  0.84988541    -0.84500
Zr2050     Zr  0.90491299  0.83569107  0.89212249     2.26400
Zr2051     Zr  0.87072474  0.84610118  0.80873665     2.06300
Zr2052     Zr  0.96550629  0.93095035  0.90128310     2.10000
Zr2053     Zr  0.81619178  0.91950588  0.87194160     1.78800
O2054       O  0.05757998  0.92506446  0.91847904    -0.93300
O2055       O  0.72326244  0.90578741  0.85826116    -0.41100
O2056       O  0.88207605  0.89838301  0.90532810    -0.77800
O2057       O  0.83629641  0.85654436  0.85983727    -0.96400
O2058       O  0.93693259  0.82364534  0.84104834    -0.89700
O2059       O  0.98811854  0.86791396  0.88929937    -0.92600
C2060       C  0.80783083  0.98982394  0.82815754     1.01200
C2061       C  0.01469637  0.00409208  0.86318635     1.14100
C2062       C  0.88769068  0.90136503  0.74811456     1.04900
O2063       O  0.77903072  0.83879801  0.78996366    -0.94700
O2064       O  0.83241737  0.78771091  0.82296833    -0.90500
O2065       O  0.85072106  0.78415753  0.87328021    -0.83600
C2066       C  0.82943598  0.77196366  0.84803902     1.11500
O2067       O  0.09099859  0.88350699  0.80877535    -0.96700
Zr2068     Zr  0.01842616  0.85706123  0.83774572     1.88900
O2069       O  0.96820901  0.78607384  0.89077061    -0.73400
O2070       O  0.90913967  0.79841095  0.77304985    -0.52600
O2071       O  0.03657656  0.81985952  0.79014393    -0.97300
O2072       O  0.10546836  0.85784677  0.86296705    -0.54500
O2073       O  0.02883996  0.79515960  0.85327585    -0.73900
C2074       C  0.00834261  0.77602129  0.87378965     0.98500
O2075       O  0.85063887  0.80610719  0.92988335    -0.62700
O2076       O  0.94534665  0.98144965  0.93940952    -0.57500
O2077       O  0.92666086  0.84997765  0.94579267    -0.94200
O2078       O  0.95284151  0.90974596  0.95194799    -0.92600
O2079       O  0.80437086  0.97073238  0.91049541    -0.93000
O2080       O  0.75384087  0.89653752  0.90926143    -0.91800
C2081       C  0.94094713  0.87884698  0.96240308     1.17300
H2082       H  0.89162639  0.98017551  0.87574531     0.33200
H2083       H  0.80316936  0.84298137  0.86207341     0.44100
H2084       H  0.01339649  0.85943521  0.90361264     0.37600
H2085       H  0.96744429  0.87791974  0.78455858     0.34100
H2086       H  0.70581683  0.93010892  0.86040007     0.25900
H2087       H  0.87765032  0.78556130  0.76334286     0.31800
H2088       H  0.01749470  0.79627669  0.79227783     0.37700
H2089       H  0.76691197  0.96842363  0.91808797     0.32200
H2090       H  0.98069189  0.99272754  0.94499669     0.31100
H2091       H  0.07924241  0.92090078  0.89950610     0.32800
H2092       H  0.12698860  0.83927846  0.85057320     0.31700
H2093       H  0.76447021  0.87074200  0.91090742     0.35700
H2094       H  0.87529027  0.79269520  0.94246535     0.28500
H2095       H  0.95364375  0.99191624  0.77120750     0.32700
H2096       H  0.07853250  0.90849693  0.80545508     0.35500
H2097       H  0.92695144  0.99998490  0.92817122     0.28200
H2098       H  0.83436662  0.82580435  0.94380736     0.41000
H2099       H  0.75634085  0.83705370  0.80845119     0.31100
H2100       H  0.72425654  0.89886782  0.83600823     0.38700
H2101       H  0.09900536  0.84670109  0.88242886     0.30500
H2102       H  0.92633021  0.81138528  0.75657198     0.30600
H2103       H  0.99847154  0.96156775  0.76859414     0.30900
C2104       C  0.87554756  0.90370413  0.61180953    -0.02600
C2105       C  0.43646811  0.90160920  0.63644277    -0.02600
C2106       C  0.14034010  0.64418491  0.88790400    -0.02600
Zr2107     Zr  0.13901112  0.71476245  0.67288764     2.17500
O2108       O  0.08506499  0.74749095  0.71311958    -0.51500
O2109       O  0.19912677  0.76900922  0.66860025    -0.74700
O2110       O  0.16392238  0.70456917  0.72616889    -0.81500
O2111       O  0.05405882  0.74368660  0.60915687    -0.83200
O2112       O  0.20635340  0.64949608  0.72569552    -0.78800
O2113       O  0.07440612  0.76067607  0.65858086    -0.90500
O2114       O  0.25724846  0.75458253  0.62918791    -0.76400
O2115       O  0.22449461  0.68530624  0.66579264    -0.85900
O2116       O  0.16189417  0.71762594  0.62011419    -0.85600
O2117       O  0.12436491  0.65124939  0.68286913    -0.72400
O2118       O  0.06849290  0.68331128  0.64297541    -0.84500
Zr2119     Zr  0.16601379  0.59530326  0.59329576     2.26400
Zr2120     Zr  0.21016249  0.62165968  0.67439371     2.06300
Zr2121     Zr  0.09346660  0.68547828  0.59051318     2.10000
Zr2122     Zr  0.24782344  0.68953438  0.61359032     1.78800
O2123       O  0.99984568  0.67188605  0.57747838    -0.93300
O2124       O  0.33313692  0.69264853  0.64060069    -0.41100
O2125       O  0.17993813  0.65804934  0.58294144    -0.77800
O2126       O  0.23716907  0.62586389  0.62252906    -0.96400
O2127       O  0.14089112  0.59101164  0.64500098    -0.89700
O2128       O  0.07955023  0.62291420  0.60002995    -0.92600
C2129       C  0.23631177  0.77751214  0.64953110     1.01200
C2130       C  0.05160461  0.76615678  0.63324563     1.14100
C2131       C  0.18585918  0.67835863  0.73948413     1.04900
O2132       O  0.30458577  0.62848669  0.68828844    -0.94700
O2133       O  0.24968371  0.56146284  0.65996559    -0.90500
O2134       O  0.21975012  0.54668061  0.61211318    -0.83600
C2135       C  0.24652849  0.53939713  0.63570244     1.11500
O2136       O  0.98871761  0.64710775  0.68809349    -0.96700
Zr2137     Zr  0.05617940  0.62015547  0.65246404     1.88900
O2138       O  0.09989614  0.54572048  0.59227431    -0.73400
O2139       O  0.18657278  0.57520450  0.70887824    -0.52600
O2140       O  0.04040940  0.58597252  0.69698908    -0.97300
O2141       O  0.96823516  0.61969887  0.62822076    -0.54500
O2142       O  0.04828426  0.55577175  0.63512133    -0.73900
C2143       C  0.06535862  0.53551734  0.61186372     0.98500
O2144       O  0.21859417  0.56258624  0.55260879    -0.62700
O2145       O  0.09684862  0.72762497  0.55042602    -0.57500
O2146       O  0.15217236  0.60451121  0.53951767    -0.94200
O2147       O  0.11126230  0.65984390  0.53847125    -0.92600
O2148       O  0.26520351  0.72004477  0.56735927    -0.93000
O2149       O  0.32027113  0.66342667  0.58108219    -0.91800
C2150       C  0.13300919  0.63079109  0.52537294     1.17300
H2151       H  0.16252071  0.74256545  0.61443092     0.33200
H2152       H  0.27089237  0.61335292  0.61842175     0.44100
H2153       H  0.05365105  0.61087163  0.58625248     0.37600
H2154       H  0.11197653  0.64963416  0.70358038     0.34100
H2155       H  0.35630599  0.70898713  0.62910114     0.25900
H2156       H  0.21367093  0.57801507  0.72526548     0.31800
H2157       H  0.00557138  0.57306777  0.69310649     0.37700
H2158       H  0.23511781  0.73748071  0.56643572     0.32200
H2159       H  0.06006067  0.73765305  0.54950304     0.31100
H2160       H  0.99819937  0.67405745  0.55522493     0.32800
H2161       H  0.94368933  0.60776227  0.64234792     0.31700
H2162       H  0.30357444  0.64211130  0.56921440     0.35700
H2163       H  0.25665707  0.56586128  0.55884342     0.28500
H2164       H  0.11057395  0.76190770  0.72664676     0.32700
H2165       H  0.98259542  0.67197874  0.68153691     0.35500
H2166       H  0.11944309  0.74855425  0.55868132     0.28200
H2167       H  0.21049940  0.53616831  0.55389767     0.41000
H2168       H  0.31050252  0.60928964  0.70245239     0.31100
H2169       H  0.32568245  0.70720767  0.66018767     0.38700
H2170       H  0.97095602  0.60162223  0.61022049     0.30500
H2171       H  0.15234646  0.58370547  0.71871128     0.30600
H2172       H  0.06951571  0.72856205  0.72556531     0.30900
C2173       C  0.20344147  0.64226820  0.86887140    -0.02600
Zr2174     Zr  0.43624839  0.83496997  0.91611131     2.17500
O2175       O  0.49281552  0.80568522  0.95191180    -0.51500
O2176       O  0.37321673  0.78398828  0.91440764    -0.74700
O2177       O  0.40891184  0.84764712  0.96913652    -0.81500
O2178       O  0.51656124  0.79501256  0.84814008    -0.83200
O2179       O  0.37540421  0.90568754  0.97509452    -0.78800
O2180       O  0.49912906  0.78717635  0.89776939    -0.90500
O2181       O  0.30565995  0.79779515  0.88294813    -0.76400
O2182       O  0.35224977  0.86583869  0.91338080    -0.85900
O2183       O  0.40712429  0.82458952  0.86478198    -0.85600
O2184       O  0.45511867  0.89867158  0.93046796    -0.72400
O2185       O  0.50639423  0.85884523  0.88533296    -0.84500
Zr2186     Zr  0.41474182  0.94483423  0.84493313     2.26400
Zr2187     Zr  0.37093389  0.92984857  0.92568889     2.06300
Zr2188     Zr  0.47483207  0.85010470  0.83400243     2.10000
Zr2189     Zr  0.32470045  0.85580165  0.86188354     1.78800
O2190       O  0.56236424  0.85650004  0.80931873    -0.93300
O2191       O  0.23722179  0.86888954  0.88574603    -0.41100
O2192       O  0.39206639  0.88172225  0.83061253    -0.77800
O2193       O  0.34200942  0.91984952  0.87387392    -0.96400
O2194       O  0.44243815  0.95482139  0.89656849    -0.89700
O2195       O  0.49755617  0.91317480  0.84760323    -0.92600
C2196       C  0.32886553  0.77671995  0.90055687     1.01200
C2197       C  0.52215928  0.77783856  0.87200143     1.14100
C2198       C  0.39087387  0.87574173  0.98536099     1.04900
O2199       O  0.27958494  0.92514480  0.94564938    -0.94700
O2200       O  0.32320372  0.98424660  0.91243121    -0.90500
O2201       O  0.34756934  0.49155976  0.86099428    -0.83600
C2202       C  0.31967206  0.50168993  0.88486178     1.11500
O2203       O  0.58997629  0.89802633  0.93334781    -0.96700
Zr2204     Zr  0.52447045  0.92211677  0.89958966     1.88900
O2205       O  0.48195275  0.49567056  0.84828324    -0.73400
O2206       O  0.39218379  0.98427221  0.95950293    -0.52600
O2207       O  0.54759780  0.96001045  0.94595680    -0.97300
O2208       O  0.60982625  0.91151825  0.87303593    -0.54500
O2209       O  0.54604401  0.98200795  0.88429258    -0.73900
C2210       C  0.52405322  0.50448193  0.86427921     0.98500
O2211       O  0.38190009  0.98040425  0.80457634    -0.62700
O2212       O  0.45571299  0.79223244  0.80423032    -0.57500
O2213       O  0.42251299  0.92641333  0.79010983    -0.94200
O2214       O  0.45441231  0.86850363  0.78376557    -0.92600
O2215       O  0.31429140  0.81221515  0.81729859    -0.93000
O2216       O  0.25457116  0.87115969  0.82702805    -0.91800
C2217       C  0.43615933  0.89743939  0.77311787     1.17300
H2218       H  0.40310126  0.79869412  0.85868434     0.33200
H2219       H  0.30828056  0.93178965  0.87075510     0.44100
H2220       H  0.52389364  0.92226989  0.83370880     0.37600
H2221       H  0.46825588  0.90170907  0.95103302     0.34100
H2222       H  0.21573328  0.84621144  0.88093933     0.25900
H2223       H  0.37650992  0.97962553  0.97962263     0.31800
H2224       H  0.52755759  0.98312094  0.94480571     0.37700
H2225       H  0.32791140  0.82536072  0.79995530     0.32200
H2226       H  0.47825618  0.79231491  0.78559549     0.31100
H2227       H  0.55745529  0.84569019  0.78811304     0.32800
H2228       H  0.60998128  0.92838556  0.85657800     0.31700
H2229       H  0.26860323  0.89324037  0.81788503     0.35700
H2230       H  0.34212099  0.97831347  0.80543801     0.28500
H2231       H  0.46819432  0.79073848  0.96382351     0.32700
H2232       H  0.58329863  0.87117384  0.93169014     0.35500
H2233       H  0.41815672  0.79402746  0.79737120     0.28200
H2234       H  0.39006171  0.00639986  0.81128969     0.41000
H2235       H  0.27720394  0.94501760  0.96236167     0.31100
H2236       H  0.24362680  0.86937274  0.90792968     0.38700
H2237       H  0.60627188  0.88667935  0.86234555     0.30500
H2238       H  0.43163916  0.98384069  0.96220464     0.30600
H2239       H  0.50610566  0.82565956  0.96662602     0.30900
C2240       C  0.37315463  0.89940641  0.61819793    -0.02600
C2241       C  0.42231528  0.90096583  0.56640611    -0.05900
C2242       C  0.38356730  0.88292431  0.58343838     0.00000
C2243       C  0.35815964  0.85169694  0.56566297    -0.08600
C2244       C  0.35604070  0.85218404  0.53355311    -0.06000
C2245       C  0.38919619  0.87547485  0.51816615     0.00000
C2246       C  0.42748492  0.89708590  0.53463963    -0.08500
C2247       C  0.47225372  0.91733709  0.51885408     0.61900
H2248       H  0.44846531  0.91983985  0.57717532     0.12600
H2249       H  0.33175995  0.83205563  0.52013635     0.12600
C2250       C  0.34045601  0.81436578  0.57569546     0.62100
F2251       F  0.50607114  0.93668673  0.53923294    -0.23000
F2252       F  0.45730587  0.94096665  0.00010254    -0.20400
F2253       F  0.50300525  0.89226959  0.50112097    -0.20000
F2254       F  0.28632961  0.80870080  0.56997153    -0.20100
F2255       F  0.35145173  0.80945805  0.60566059    -0.20400
F2256       F  0.36676135  0.78688008  0.55796377    -0.23100
C2257       C  0.22453173  0.70386754  0.90404827    -0.05900
C2258       C  0.24538660  0.67335308  0.88490519     0.00000
C2259       C  0.30414257  0.67616774  0.88004109    -0.08600
C2260       C  0.33027519  0.71044874  0.88732935    -0.06000
C2261       C  0.30459621  0.74024013  0.90245566     0.00000
C2262       C  0.25313631  0.73570780  0.91407231    -0.08500
C2263       C  0.22876916  0.76450283  0.93716592     0.61900
H2264       H  0.18512880  0.70382154  0.91269951     0.12600
H2265       H  0.37104542  0.71549771  0.87963073     0.12600
C2266       C  0.34180633  0.64711148  0.86465539     0.62100
F2267       F  0.17733924  0.75497990  0.94631842    -0.23000
F2268       F  0.22585503  0.79806818  0.92506262    -0.20400
F2269       F  0.26088418  0.76817694  0.96275406    -0.20000
F2270       F  0.39525204  0.65846239  0.86455248    -0.20100
F2271       F  0.32832184  0.64001653  0.83474842    -0.20400
F2272       F  0.34183176  0.61562966  0.87955172    -0.23100
C2273       C  0.24824171  0.59371690  0.89931696    -0.05900
C2274       C  0.23376146  0.60320583  0.86977531     0.00000
C2275       C  0.25403694  0.57666395  0.84526246    -0.08600
C2276       C  0.27013492  0.54167576  0.85292625    -0.06000
C2277       C  0.28465693  0.53435559  0.88228169     0.00000
C2278       C  0.27331300  0.56104640  0.90622535    -0.08500
C2279       C  0.29020876  0.55655204  0.93881331     0.61900
H2280       H  0.24702109  0.61391902  0.91726344     0.12600
H2281       H  0.27893704  0.52062170  0.83469240     0.12600
C2282       C  0.27076148  0.57981523  0.81155547     0.62100
F2283       F  0.27592573  0.58632045  0.95873962    -0.23000
F2284       F  0.34554554  0.55302643  0.93981962    -0.20400
F2285       F  0.26545228  0.52580702  0.94911624    -0.20000
F2286       F  0.26120830  0.61195098  0.79902573    -0.20100
F2287       F  0.24708788  0.55175116  0.79312235    -0.20400
F2288       F  0.32585120  0.57432919  0.80887616    -0.23100
C2289       C  0.14926114  0.65041925  0.78343179    -0.05900
C2290       C  0.18292570  0.67744971  0.77305309     0.00000
C2291       C  0.22407120  0.69155176  0.79200508    -0.08600
C2292       C  0.22891569  0.67873069  0.82123706    -0.06000
C2293       C  0.19553771  0.65086821  0.83340984     0.00000
C2294       C  0.15961900  0.63291324  0.81027052    -0.08500
C2295       C  0.14060131  0.59270397  0.80528463     0.61900
H2296       H  0.12035279  0.63799319  0.76717200     0.12600
H2297       H  0.26168738  0.69085946  0.83378451     0.12600
C2298       C  0.26343665  0.71975210  0.78086048     0.62100
F2299       F  0.16310532  0.57717081  0.77843438    -0.23000
F2300       F  0.15386459  0.57097572  0.82767996    -0.20400
F2301       F  0.08587293  0.59024970  0.80048898    -0.20000
F2302       F  0.23539545  0.75021875  0.77342626    -0.20100
F2303       F  0.29081380  0.70486501  0.75524546    -0.20400
F2304       F  0.30112940  0.73118892  0.80267172    -0.23100
C2305       C  0.24343913  0.83517580  0.62324805    -0.05900
C2306       C  0.25552495  0.81635229  0.64860454     0.00000
C2307       C  0.28868507  0.83468213  0.67058484    -0.08600
C2308       C  0.32014768  0.86495591  0.66206060    -0.06000
C2309       C  0.32407157  0.87506148  0.63155919     0.00000
C2310       C  0.27385470  0.86652636  0.61571803    -0.08500
C2311       C  0.24705064  0.89126032  0.59414691     0.61900
H2312       H  0.21064703  0.82455118  0.60895983     0.12600
H2313       H  0.33556310  0.88291938  0.68022664     0.12600
C2314       C  0.28784940  0.82359252  0.70295061     0.62100
F2315       F  0.20340698  0.87414811  0.57966855    -0.23000
F2316       F  0.22856349  0.92235472  0.61088290    -0.20400
F2317       F  0.28043278  0.90144901  0.57137062    -0.20000
F2318       F  0.31136022  0.78954937  0.70374640    -0.20100
F2319       F  0.23525964  0.82171376  0.71345705    -0.20400
F2320       F  0.31492502  0.84881023  0.72249277    -0.23100
C2321       C  0.29242529  0.99185522  0.60320098    -0.05900
C2322       C  0.27585252  0.00424406  0.63254754     0.00000
C2323       C  0.29557147  0.48402418  0.65656513    -0.08600
C2324       C  0.32388616  0.95196738  0.64974279    -0.06000
C2325       C  0.34459422  0.93970489  0.62009996     0.00000
C2326       C  0.33207012  0.96483678  0.59666283    -0.08500
C2327       C  0.35973787  0.96975849  0.56577129     0.61900
H2328       H  0.27665973  0.00615842  0.58479577     0.12600
H2329       H  0.33632151  0.93765400  0.66863302     0.12600
C2330       C  0.28015010  0.49504020  0.68951958     0.62100
F2331       F  0.41457591  0.97329398  0.56891402    -0.23000
F2332       F  0.34580808  0.00207410  0.55345441    -0.20400
F2333       F  0.34449745  0.94227409  0.54426784    -0.20000
F2334       F  0.22491345  0.49889508  0.69211820    -0.20100
F2335       F  0.30526999  0.52786146  0.69913806    -0.20400
F2336       F  0.29549227  0.46910496  0.70885039    -0.23100
C2337       C  0.18281593  0.65045128  0.94559762    -0.05900
C2338       C  0.13974859  0.63850085  0.92547044     0.00000
C2339       C  0.09359295  0.62428098  0.94274182    -0.08600
C2340       C  0.09636540  0.61543507  0.47382607    -0.06000
C2341       C  0.13858076  0.62905260  0.49168344     0.00000
C2342       C  0.18128182  0.64640575  0.47766861    -0.08500
C2343       C  0.22734586  0.66343550  0.49678988     0.61900
H2344       H  0.21942548  0.66057796  0.93792518     0.12600
H2345       H  0.06341248  0.60249889  0.48547212     0.12600
C2346       C  0.03516183  0.61901903  0.93261317     0.62100
F2347       F  0.26801176  0.68279668  0.97892786    -0.23000
F2348       F  0.24992692  0.63723969  0.51353090    -0.20400
F2349       F  0.20750704  0.69167705  0.51649561    -0.20000
F2350       F  0.02180612  0.64125891  0.91083482    -0.20100
F2351       F  0.99959647  0.62836762  0.95649521    -0.20400
F2352       F  0.02523564  0.58278445  0.92276968    -0.23100
C2353       C  0.42610586  0.87056179  0.68709961    -0.05900
C2354       C  0.43374039  0.90442856  0.67367288     0.00000
C2355       C  0.44929225  0.93429097  0.69626015    -0.08600
C2356       C  0.43235255  0.93200386  0.72677094    -0.06000
C2357       C  0.43142714  0.89795994  0.73913930     0.00000
C2358       C  0.43043261  0.86611313  0.71834771    -0.08500
C2359       C  0.43459536  0.82733205  0.72801818     0.61900
H2360       H  0.41684666  0.84648951  0.67245494     0.12600
H2361       H  0.43517476  0.95655525  0.74241525     0.12600
C2362       C  0.49715545  0.96143709  0.69557816     0.62100
F2363       F  0.42619743  0.80081923  0.70409557    -0.23000
F2364       F  0.39664993  0.82153950  0.75031096    -0.20400
F2365       F  0.48586814  0.82238562  0.73871461    -0.20000
F2366       F  0.47842887  0.99687153  0.69521299    -0.20100
F2367       F  0.53348414  0.95383011  0.67231851    -0.20400
F2368       F  0.52825319  0.46195379  0.72153383    -0.23100
C2369       C  0.02563074  0.57175966  0.85387968    -0.05900
C2370       C  0.04487685  0.53935219  0.86445489     0.00000
C2371       C  0.09470850  0.54104586  0.87950776    -0.08600
C2372       C  0.12120191  0.57511615  0.88508305    -0.06000
C2373       C  0.10407256  0.60920155  0.87492100     0.00000
C2374       C  0.05335517  0.60651169  0.85782016    -0.08500
C2375       C  0.02542299  0.63730235  0.84233692     0.61900
H2376       H  0.98680071  0.56944578  0.84293857     0.12600
H2377       H  0.15453005  0.57514878  0.90011384     0.12600
C2378       C  0.12313522  0.00732098  0.89402814     0.62100
F2379       F  0.98445272  0.62394543  0.82322939    -0.23000
F2380       F  0.06018864  0.65455959  0.82385814    -0.20400
F2381       F  0.00208948  0.66255295  0.86319146    -0.20000
F2382       F  0.12203835  0.97760903  0.87234772    -0.20100
F2383       F  0.09529357  0.99886114  0.91992805    -0.20400
F2384       F  0.17629484  0.01360769  0.90204765    -0.23100
C2385       C  0.06104790  0.72209386  0.85375300    -0.05900
C2386       C  0.03489596  0.74093075  0.87878892     0.00000
C2387       C  0.04718968  0.73089538  0.90833814    -0.08600
C2388       C  0.08308232  0.70160959  0.91065792    -0.06000
C2389       C  0.11081241  0.68377866  0.88476257     0.00000
C2390       C  0.11128069  0.70625081  0.85888522    -0.08500
C2391       C  0.14948130  0.74020264  0.85624565     0.61900
H2392       H  0.05270266  0.73027511  0.83113819     0.12600
H2393       H  0.08854108  0.69326410  0.93316989     0.12600
C2394       C  0.02358006  0.75081939  0.93717923     0.62100
F2395       F  0.14131147  0.75566517  0.82890505    -0.23000
F2396       F  0.20302996  0.73399641  0.85658071    -0.20400
F2397       F  0.13972316  0.76704804  0.87983528    -0.20000
F2398       F  0.96827208  0.74601644  0.93757611    -0.20100
F2399       F  0.03601989  0.78789471  0.93813815    -0.20400
F2400       F  0.04356253  0.73778468  0.96341894    -0.23100
C2401       C  0.83703877  0.88820020  0.66592377    -0.05900
C2402       C  0.87221669  0.91043878  0.64925161     0.00000
C2403       C  0.89968167  0.93814732  0.66941129    -0.08600
C2404       C  0.91305398  0.92863432  0.69906604    -0.06000
C2405       C  0.88086086  0.90399594  0.71437917     0.00000
C2406       C  0.83928598  0.88522256  0.69752513    -0.08500
C2407       C  0.79643598  0.86215884  0.71229175     0.61900
H2408       H  0.80585041  0.87259607  0.65445907     0.12600
H2409       H  0.94144029  0.94593164  0.71236811     0.12600
C2410       C  0.88851961  0.97964025  0.67014274     0.62100
F2411       F  0.75435729  0.85233006  0.69276920    -0.23000
F2412       F  0.77460111  0.88198796  0.73757713    -0.20400
F2413       F  0.81895463  0.83012155  0.72071782    -0.20000
F2414       F  0.92917626  0.99795082  0.65600493    -0.20100
F2415       F  0.88535705  0.99608812  0.69975587    -0.20400
F2416       F  0.83932115  0.98623179  0.65765419    -0.23100
C2417       C  0.75574526  0.58697042  0.82299373    -0.05900
C2418       C  0.74007426  0.59507551  0.85412346     0.00000
C2419       C  0.74918251  0.56467176  0.87261459    -0.08600
C2420       C  0.74738256  0.52926793  0.85836034    -0.06000
C2421       C  0.77423769  0.52308318  0.83048972     0.00000
C2422       C  0.77750353  0.55243858  0.81164486    -0.08500
C2423       C  0.80109066  0.04789662  0.78116510     0.61900
H2424       H  0.75594526  0.60786728  0.80778526     0.12600
H2425       H  0.74399366  0.50686721  0.87290612     0.12600
C2426       C  0.78322331  0.56535304  0.90164832     0.62100
F2427       F  0.78944807  0.07711467  0.76431750    -0.23000
F2428       F  0.77926491  0.01639598  0.76627785    -0.20400
F2429       F  0.85638863  0.04451750  0.78217841    -0.20000
F2430       F  0.75244808  0.55523199  0.92594765    -0.20100
F2431       F  0.80798084  0.59818854  0.90923130    -0.20400
F2432       F  0.82515816  0.54058946  0.89743046    -0.23100
C2433       C  0.73423351  0.70198473  0.87585118    -0.05900
C2434       C  0.75261612  0.66805901  0.86179625     0.00000
C2435       C  0.80359797  0.67028936  0.84505743    -0.08600
C2436       C  0.82135744  0.70505560  0.83674764    -0.06000
C2437       C  0.79848460  0.73767361  0.84925721     0.00000
C2438       C  0.75448218  0.73629298  0.86938639    -0.08500
C2439       C  0.72865742  0.77108000  0.88433504     0.61900
H2440       H  0.70333673  0.70190047  0.89317696     0.12600
H2441       H  0.85802779  0.70710903  0.82329590     0.12600
C2442       C  0.84757060  0.64124030  0.83995049     0.62100
F2443       F  0.67856962  0.76427478  0.89681675    -0.23000
F2444       F  0.72260788  0.79654616  0.86316378    -0.20400
F2445       F  0.76036569  0.78617336  0.90758299    -0.20000
F2446       F  0.85173557  0.62943140  0.80935473    -0.20100
F2447       F  0.84160417  0.61161498  0.85682718    -0.20400
F2448       F  0.89648223  0.65691371  0.84886738    -0.23100
C2449       C  0.54741417  0.97402101  0.60829543    -0.05900
C2450       C  0.52390670  0.50670162  0.61613715     0.00000
C2451       C  0.47245806  0.50574402  0.62914076    -0.08600
C2452       C  0.45055841  0.47163327  0.63494997    -0.06000
C2453       C  0.47065124  0.93701785  0.62682280     0.00000
C2454       C  0.52341669  0.93923618  0.61072955    -0.08500
C2455       C  0.55882906  0.90883839  0.59485065     0.61900
H2456       H  0.58858799  0.97632196  0.60009382     0.12600
H2457       H  0.41803420  0.47281713  0.65080780     0.12600
C2458       C  0.44130010  0.54070857  0.63808635     0.62100
F2459       F  0.59095484  0.92178992  0.57198289    -0.23000
F2460       F  0.52897199  0.88161883  0.58029156    -0.20400
F2461       F  0.59402079  0.89506122  0.61494234    -0.20000
F2462       F  0.43869485  0.56154626  0.61334540    -0.20100
F2463       F  0.46598232  0.56092001  0.66201569    -0.20400
F2464       F  0.38925838  0.53332483  0.64727239    -0.23100
C2465       C  0.46365120  0.80160997  0.63470871    -0.05900
C2466       C  0.51533332  0.79862063  0.64704236     0.00000
C2467       C  0.54416637  0.83192065  0.65462946    -0.08600
C2468       C  0.52036602  0.86490693  0.64745304    -0.06000
C2469       C  0.47335356  0.86590024  0.62911750     0.00000
C2470       C  0.45636118  0.83027954  0.61578726    -0.08500
C2471       C  0.47859091  0.81479469  0.58426407     0.61900
H2472       H  0.44023173  0.77662693  0.62982675     0.12600
H2473       H  0.53603581  0.89028171  0.65816703     0.12600
C2474       C  0.59822759  0.83347632  0.67059812     0.62100
F2475       F  0.53425370  0.81270478  0.58490134    -0.23000
F2476       F  0.46544039  0.83469674  0.56058848    -0.20400
F2477       F  0.45944927  0.77951013  0.57662030    -0.20000
F2478       F  0.63755786  0.81867249  0.65085440    -0.20100
F2479       F  0.59520544  0.81420655  0.69632524    -0.20400
F2480       F  0.61385211  0.86913109  0.67986436    -0.23100
C2481       C  0.67254182  0.60486659  0.91370330    -0.05900
C2482       C  0.70912006  0.63157122  0.90313988     0.00000
C2483       C  0.74156408  0.65095810  0.92752860    -0.08600
C2484       C  0.72610280  0.64820481  0.95800448    -0.06000
C2485       C  0.68756220  0.62356014  0.96758433     0.00000
C2486       C  0.66197193  0.59996108  0.94500983    -0.08500
C2487       C  0.62197917  0.57082073  0.95353078     0.61900
H2488       H  0.65326910  0.58604509  0.89719294     0.12600
H2489       H  0.74676473  0.66561146  0.97542810     0.12600
C2490       C  0.79599562  0.67214522  0.92663392     0.62100
F2491       F  0.60081731  0.55100284  0.92815200    -0.23000
F2492       F  0.57977703  0.58729627  0.97009172    -0.20400
F2493       F  0.64727355  0.54631349  0.97074201    -0.20000
F2494       F  0.82764344  0.66336274  0.90165305    -0.20100
F2495       F  0.82829523  0.66404073  0.95071479    -0.20400
F2496       F  0.78730923  0.70956564  0.92995093    -0.23100
C2497       C  0.86438647  0.47168580  0.59863244    -0.05900
C2498       C  0.84060987  0.93814411  0.60228227     0.00000
C2499       C  0.78196063  0.94226527  0.60340707    -0.08600
C2500       C  0.75858101  0.97209519  0.58944658    -0.06000
C2501       C  0.78416448  0.50547116  0.58802051     0.00000
C2502       C  0.84024988  0.50501346  0.59315976    -0.08500
C2503       C  0.87489897  0.54005889  0.59679810     0.61900
H2504       H  0.90277557  0.47524449  0.60717241     0.12600
H2505       H  0.71543565  0.97303877  0.58636200     0.12600
C2506       C  0.74350061  0.92540288  0.62623385     0.62100
F2507       F  0.92930952  0.53306479  0.59698640    -0.23000
F2508       F  0.86366612  0.55939766  0.62449314    -0.20400
F2509       F  0.86570019  0.56151581  0.57300192    -0.20000
F2510       F  0.74054925  0.88792482  0.62305897    -0.20100
F2511       F  0.69095835  0.93694221  0.62347167    -0.20400
F2512       F  0.75870549  0.93709653  0.65553811    -0.23100
C2513       C  0.76560613  0.82807391  0.58170911    -0.05900
C2514       C  0.77478517  0.80152263  0.60216111     0.00000
C2515       C  0.82394543  0.80298975  0.61753812    -0.08600
C2516       C  0.85587876  0.83481104  0.61726588    -0.06000
C2517       C  0.84375131  0.86582901  0.60125407     0.00000
C2518       C  0.80065788  0.85882954  0.57916332    -0.08500
C2519       C  0.78775597  0.88008280  0.55192303     0.61900
H2520       H  0.73077564  0.82443892  0.56705177     0.12600
H2521       H  0.88774155  0.83648723  0.63288904     0.12600
C2522       C  0.84417429  0.77041472  0.63330388     0.62100
F2523       F  0.73751948  0.89591051  0.55585025    -0.23000
F2524       F  0.78578048  0.85594767  0.52592312    -0.20400
F2525       F  0.82504919  0.90668056  0.54660069    -0.20000
F2526       F  0.84577430  0.73974162  0.61262731    -0.20100
F2527       F  0.81083055  0.76364454  0.65752069    -0.20400
F2528       F  0.89558479  0.77628892  0.64443522    -0.23100
C2529       C  0.56486315  0.60522515  0.86651462    -0.05900
C2530       C  0.61441780  0.60468149  0.84990392     0.00000
C2531       C  0.62579980  0.56929606  0.83304216    -0.08600
C2532       C  0.60037570  0.53752275  0.84285484    -0.06000
C2533       C  0.55275002  0.53934251  0.85976960     0.00000
C2534       C  0.53305149  0.57382024  0.87073294    -0.08500
C2535       C  0.47856773  0.57729577  0.88681801     0.61900
H2536       H  0.54691060  0.63057842  0.87391229     0.12600
H2537       H  0.61195619  0.51055548  0.83282414     0.12600
C2538       C  0.64035796  0.56185436  0.79883780     0.62100
F2539       F  0.46659926  0.61337000  0.89648228    -0.23000
F2540       F  0.47819484  0.55725848  0.91211032    -0.20400
F2541       F  0.43854691  0.56396957  0.86711445    -0.20000
F2542       F  0.66869872  0.52944575  0.79397220    -0.20100
F2543       F  0.67039344  0.58767289  0.78556493    -0.20400
F2544       F  0.59310055  0.55735982  0.78248030    -0.23100
C2545       C  0.63368702  0.71113859  0.84809993    -0.05900
C2546       C  0.62350228  0.67964621  0.86481746     0.00000
C2547       C  0.58699728  0.68828468  0.89083343    -0.08600
C2548       C  0.55174723  0.71858173  0.89004286    -0.06000
C2549       C  0.55837688  0.74551115  0.86952849     0.00000
C2550       C  0.60242093  0.74264343  0.84908759    -0.08500
C2551       C  0.61777074  0.77237558  0.82801904     0.61900
H2552       H  0.66764209  0.71105599  0.83291885     0.12600
H2553       H  0.51959417  0.72266615  0.90675581     0.12600
C2554       C  0.58940850  0.67343360  0.92231973     0.62100
F2555       F  0.66726113  0.76624046  0.81373821    -0.23000
F2556       F  0.62075862  0.80627612  0.84455687    -0.20400
F2557       F  0.57999294  0.77318306  0.80526257    -0.20000
F2558       F  0.63940550  0.68105237  0.93407871    -0.20100
F2559       F  0.57725600  0.63680821  0.92215470    -0.20400
F2560       F  0.55372718  0.69070632  0.94320965    -0.23100
C2561       C  0.60067828  0.66303256  0.76699751    -0.05900
C2562       C  0.64839695  0.66993389  0.75186422     0.00000
C2563       C  0.69701562  0.66725316  0.76698262    -0.08600
C2564       C  0.69581760  0.65897523  0.79768747    -0.06000
C2565       C  0.64864515  0.64855654  0.81388935     0.00000
C2566       C  0.59818760  0.65259919  0.79712246    -0.08500
C2567       C  0.53998671  0.64665601  0.80839082     0.61900
H2568       H  0.56455960  0.66420320  0.75356856     0.12600
H2569       H  0.73275753  0.66184978  0.80861917     0.12600
C2570       C  0.75002016  0.67107190  0.74988364     0.62100
F2571       F  0.50162446  0.65776315  0.78854525    -0.23000
F2572       F  0.52950895  0.66703744  0.83538178    -0.20400
F2573       F  0.52948821  0.60991234  0.81066725    -0.20000
F2574       F  0.75271833  0.70481770  0.73792428    -0.20100
F2575       F  0.75338522  0.64358616  0.72629120    -0.20400
F2576       F  0.79407066  0.66823990  0.76842150    -0.23100
C2577       C  0.03430705  0.81535078  0.60048173    -0.05900
C2578       C  0.02538901  0.80208447  0.62902852     0.00000
C2579       C  0.99834957  0.82559678  0.65165320    -0.08600
C2580       C  0.97480416  0.85851835  0.64264486    -0.06000
C2581       C  0.98030163  0.86948557  0.61246273     0.00000
C2582       C  0.02582321  0.85230589  0.59696777    -0.08500
C2583       C  0.07966614  0.87142136  0.59181892     0.61900
H2584       H  0.06149881  0.80061114  0.58442233     0.12600
H2585       H  0.95132830  0.87444347  0.65915393     0.12600
C2586       C  0.99368394  0.81629301  0.68452218     0.62100
F2587       F  0.11648116  0.86083942  0.61276661    -0.23000
F2588       F  0.07838691  0.90907173  0.59542260    -0.20400
F2589       F  0.09874876  0.86042033  0.56285165    -0.20000
F2590       F  0.04393680  0.81899379  0.69773772    -0.20100
F2591       F  0.97375782  0.78100904  0.68591794    -0.20400
F2592       F  0.95965146  0.84004584  0.70147745    -0.23100
C2593       C  0.00181202  0.94540990  0.62813878    -0.05900
C2594       C  0.97497081  0.93614324  0.60000833     0.00000
C2595       C  0.98257405  0.96268224  0.57692465    -0.08600
C2596       C  0.01965581  0.99167736  0.58219109    -0.06000
C2597       C  0.04251700  0.00055069  0.61046887     0.00000
C2598       C  0.03576578  0.97641340  0.63353384    -0.08500
C2599       C  0.06712443  0.98210163  0.66305750     0.61900
H2600       H  0.99717583  0.92791442  0.64639465     0.12600
H2601       H  0.02409695  0.50788066  0.56087586     0.12600
C2602       C  0.95091095  0.96656856  0.54756922     0.62100
F2603       F  0.06406856  0.95163309  0.67970639    -0.23000
F2604       F  0.04717551  0.01179405  0.68107548    -0.20400
F2605       F  0.12089320  0.98840253  0.65646443    -0.20000
F2606       F  0.90817004  0.94289234  0.54330334    -0.20100
F2607       F  0.98513113  0.96228662  0.52266690    -0.20400
F2608       F  0.93037415  0.00154065  0.54760280    -0.23100
C2609       C  0.99299290  0.89115285  0.54328126    -0.05900
C2610       C  0.94646018  0.88242652  0.56087321     0.00000
C2611       C  0.91355801  0.85534594  0.54411690    -0.08600
C2612       C  0.90440584  0.86065080  0.01277946    -0.06000
C2613       C  0.94566519  0.87629056  0.99577399     0.00000
C2614       C  0.99384401  0.88605485  0.01089445    -0.08500
C2615       C  0.04609287  0.89209437  0.99347699     0.61900
H2616       H  0.02624319  0.90552775  0.55374882     0.12600
H2617       H  0.87294813  0.84514235  0.00046895     0.12600
C2618       C  0.91335499  0.81507172  0.55062461     0.62100
F2619       F  0.09025005  0.89318892  0.01238412    -0.23000
F2620       F  0.04469815  0.92484797  0.98005367    -0.20400
F2621       F  0.05353146  0.86355688  0.97110229    -0.20000
F2622       F  0.86278030  0.79972189  0.54566084    -0.20100
F2623       F  0.92931017  0.80950984  0.57952414    -0.20400
F2624       F  0.94930227  0.79605348  0.53095091    -0.23100
loop_ 
_geom_bond_atom_site_label_1 
_geom_bond_atom_site_label_2 
_geom_bond_distance 
_geom_bond_site_symmetry_2 
_ccdc_geom_bond_type 
C1          C136   1.777       .  S
C1          C613   1.628       .  S
C1          C626   1.591       .  S
C1          C642   1.630       .  S
C2           C69   1.767       .  S
C2          C562   1.613       .  S
C2          C578   1.653       .  S
C2          C597   1.627       .  S
Zr3           O4   2.437       .  S
Zr3           O5   2.487       .  S
Zr3           O6   2.492       .  S
Zr3           O9   2.446       .  S
Zr3          O11   2.390       .  S
Zr3          O12   2.386       .  S
Zr3          O13   2.423       .  S
Zr3          O14   2.417       .  S
O4           H60   0.990       .  S
O4           H68   0.989       .  S
O5           C25   1.291       .  A
O6           C27   1.292       .  A
O7          Zr17   2.389       .  S
O7           C26   1.275       .  A
O8          Zr16   2.400       .  S
O8           C27   1.281       .  A
O9           C26   1.287       .  A
O10         Zr18   2.378       .  S
O10          C25   1.270       .  A
O11         Zr16   2.400       .  S
O11         Zr18   2.380       .  S
O12         Zr17   2.377       .  S
O12         Zr18   2.379       .  S
O12          H47   0.965       .  S
O13         Zr16   2.400       .  S
O13         Zr33   2.397       .  S
O13          H50   0.965       .  S
O14         Zr17   2.381       .  S
O14         Zr33   2.391       .  S
Zr15         O40   2.440       .  S
Zr15         O34   2.420       .  S
Zr15         O42   2.478       .  S
Zr15         O30   2.486       .  S
Zr15         O21   2.391       .  S
Zr15         O22   2.401       .  S
Zr15         O23   2.390       .  S
Zr15         O24   2.391       .  S
Zr16         O35   2.437       .  S
Zr16         O28   2.435       .  S
Zr16         O29   2.412       .  S
Zr16         O22   2.398       .  S
Zr16         O23   2.387       .  S
Zr17         O19   2.435       .  S
Zr17         O41   2.441       .  S
Zr17         O43   2.370       .  S
Zr17         O21   2.387       .  S
Zr17         O24   2.378       .  S
Zr18         O44   2.435       .  S
Zr18         O45   2.437       .  S
Zr18         O20   2.437       .  S
Zr18         O21   2.377       .  S
Zr18         O22   2.370       .  S
O19          H56   0.990       .  S
O20          H51   0.989       .  S
O20          H65   0.990       .  S
O22          H48   0.963       .  S
O23         Zr33   2.374       .  S
O24         Zr33   2.375       .  S
O24          H49   0.966       .  S
C25         C533   1.499       .  S
C26         C482   1.469       .  S
C27        C1173   1.513   1_554  S
O28          H64   0.990       .  S
O29          C31   1.279       .  A
O30          C31   1.295       .  A
C31         C546   1.487       .  S
O32         Zr33   2.441       .  S
O32          H61   0.991       .  S
Zr33         O36   2.437       .  S
Zr33         O37   2.440       .  S
Zr33         O38   2.421       .  S
O34          C39   1.278       .  A
O35          H52   0.990       .  S
O35          H67   0.990       .  S
O36          H53   0.990       .  S
O37          H57   0.990       .  S
O37          H66   0.990       .  S
O38          C39   1.285       .  A
C39         C498   1.486       .  S
O40          H59   0.989       .  S
O40          H63   0.989       .  S
O41          H55   0.990       .  S
O41          H62   0.990       .  S
O42          C46   1.292       .  A
O43          C46   1.273       .  A
O44          H54   0.990       .  S
O45          H58   0.990       .  S
C46         C594   1.474       .  S
C69         C450   1.609       .  S
C69         C466   1.589       .  S
C69         C514   1.622       .  S
Zr70         O71   2.441       .  S
Zr70         O72   2.460       .  S
Zr70         O73   2.458       .  S
Zr70         O76   2.477       .  S
Zr70         O78   2.397       .  S
Zr70         O79   2.388       .  S
Zr70         O80   2.421       .  S
Zr70         O81   2.410       .  S
O71         H127   0.990       .  S
O71         H135   0.990       .  S
O72          C92   1.286       .  A
O73          C94   1.289       .  A
O74         Zr84   2.430   1_455  S
O74          C93   1.284       .  A
O75         Zr83   2.426       .  S
O75          C94   1.283       .  A
O76          C93   1.293   1_655  A
O77         Zr85   2.420       .  S
O77          C92   1.279       .  A
O78         Zr83   2.401       .  S
O78         Zr85   2.381       .  S
O79         Zr84   2.396       .  S
O79         Zr85   2.381       .  S
O79         H114   0.966       .  S
O80         Zr83   2.404       .  S
O80        Zr100   2.397   1_655  S
O80         H117   0.966       .  S
O81         Zr84   2.394       .  S
O81        Zr100   2.408   1_655  S
Zr82        O107   2.442       .  S
Zr82        O101   2.405       .  S
Zr82        O109   2.444       .  S
Zr82         O97   2.397       .  S
Zr82         O88   2.387       .  S
Zr82         O89   2.398       .  S
Zr82         O90   2.383       .  S
Zr82         O91   2.371       .  S
Zr83        O102   2.437       .  S
Zr83         O95   2.433       .  S
Zr83         O96   2.449       .  S
Zr83         O89   2.396       .  S
Zr83         O90   2.383       .  S
Zr84         O86   2.427   1_655  S
Zr84        O108   2.437       .  S
Zr84        O110   2.440       .  S
Zr84         O88   2.389       .  S
Zr84         O91   2.390       .  S
Zr85        O111   2.437       .  S
Zr85        O112   2.439       .  S
Zr85         O87   2.441       .  S
Zr85         O88   2.394       .  S
Zr85         O89   2.375       .  S
O86         H123   0.988       .  S
O87         H118   0.989       .  S
O87         H132   0.989       .  S
O89         H115   0.963       .  S
O90        Zr100   2.367   1_655  S
O91        Zr100   2.381   1_655  S
O91         H116   0.966   1_655  S
C92        C1765   1.486       .  S
C93        C1714   1.506       .  S
C94         C437   1.497       .  S
O95         H131   0.989       .  S
O96          C98   1.287       .  A
O97          C98   1.278       .  A
C98         C469   1.464       .  S
O99        Zr100   2.440       .  S
O99         H128   0.990       .  S
Zr100       O103   2.438       .  S
Zr100       O104   2.439       .  S
Zr100       O105   2.439       .  S
O101        C106   1.276   1_655  A
O102        H119   0.990       .  S
O102        H134   0.990       .  S
O103        H120   0.990       .  S
O104        H124   0.989       .  S
O104        H133   0.990       .  S
O105        C106   1.286       .  A
C106        C418   1.483       .  S
O107        H126   0.990       .  S
O107        H130   0.991       .  S
O108        H122   0.990       .  S
O108        H129   0.990       .  S
O109        C113   1.281       .  A
O110        C113   1.285       .  A
O111        H121   0.990       .  S
O112        H125   0.990       .  S
C113        C645   1.489       .  S
C136        C434   1.642       .  S
C136        C530   1.625       .  S
C136        C549   1.611       .  S
C137        C272   1.767       .  S
C137        C386   1.634       .  S
C137        C485   1.620       .  S
C137        C501   1.607       .  S
C138        C205   1.771       .  S
C138        C370   1.686       .  S
C138        C405   1.615       .  S
C138        C421   1.645       .  S
Zr139       O140   2.438       .  S
Zr139       O141   2.490       .  S
Zr139       O142   2.497       .  S
Zr139       O145   2.462       .  S
Zr139       O147   2.396       .  S
Zr139       O148   2.389       .  S
Zr139       O149   2.421       .  S
Zr139       O150   2.422       .  S
O140        H196   0.990       .  S
O140        H204   0.990       .  S
O141        C161   1.293       .  A
O142        C163   1.295       .  A
O143       Zr153   2.414       .  S
O143        C162   1.283       .  A
O144       Zr152   2.396       .  S
O144        C163   1.278       .  A
O145        C162   1.288       .  A
O146       Zr154   2.422       .  S
O146        C161   1.281       .  A
O147       Zr152   2.414       .  S
O147       Zr154   2.380       .  S
O148       Zr153   2.390       .  S
O148       Zr154   2.377       .  S
O148        H183   0.965       .  S
O149       Zr152   2.413       .  S
O149       Zr169   2.381       .  S
O149        H186   0.964       .  S
O150       Zr153   2.392       .  S
O150       Zr169   2.395       .  S
Zr151       O176   2.439       .  S
Zr151       O170   2.429       .  S
Zr151       O178   2.452       .  S
Zr151       O166   2.434       .  S
Zr151       O157   2.391       .  S
Zr151       O158   2.409       .  S
Zr151       O159   2.369       .  S
Zr151       O160   2.387       .  S
Zr152       O171   2.436       .  S
Zr152       O164   2.436       .  S
Zr152       O165   2.456       .  S
Zr152       O158   2.395       .  S
Zr152       O159   2.376       .  S
Zr153       O155   2.437       .  S
Zr153       O177   2.438       .  S
Zr153       O179   2.432       .  S
Zr153       O157   2.386       .  S
Zr153       O160   2.383       .  S
Zr154       O180   2.433       .  S
Zr154       O181   2.436       .  S
Zr154       O156   2.436       .  S
Zr154       O157   2.391       .  S
Zr154       O158   2.408       .  S
O155        H192   0.990   1_455  S
O156        H187   0.990       .  S
O156        H201   0.990       .  S
O158        H184   0.966       .  S
O159       Zr169   2.375       .  S
O160       Zr169   2.384       .  S
O160        H185   0.966       .  S
C161        C338   1.496       .  S
C162        C610   1.494       .  S
C163        C322   1.480       .  S
O164        H200   0.990       .  S
O165        C167   1.286       .  A
O166        C167   1.286       .  A
C167       C1666   1.512       .  S
O168       Zr169   2.440   1_655  S
O168        H197   0.990       .  S
Zr169       O172   2.437       .  S
Zr169       O173   2.441   1_455  S
Zr169       O174   2.413       .  S
O170        C175   1.284       .  A
O171        H188   0.990       .  S
O171        H203   0.990       .  S
O172        H189   0.990       .  S
O173        H193   0.990       .  S
O173        H202   0.989       .  S
O174        C175   1.280       .  A
C175       C1941   1.469       .  S
O176        H195   0.990       .  S
O176        H199   0.990       .  S
O177        H191   0.990       .  S
O177        H198   0.990       .  S
O178        C182   1.287       .  A
O179        C182   1.284       .  A
O180        H190   0.990       .  S
O181        H194   0.990       .  S
C182        C373   1.484   1_554  S
C205        C290   1.652       .  S
C205        C306   1.633       .  S
C205        C325   1.633       .  S
Zr206       O207   2.443       .  S
Zr206       O208   2.420       .  S
Zr206       O209   2.424       .  S
Zr206       O212   2.441       .  S
Zr206       O214   2.396       .  S
Zr206       O215   2.372       .  S
Zr206       O216   2.404       .  S
Zr206       O217   2.395       .  S
O207        H263   0.990       .  S
O207        H271   0.990       .  S
O208        C228   1.280       .  A
O209        C230   1.280       .  A
O210       Zr220   2.400       .  S
O210        C229   1.276       .  A
O211       Zr219   2.434       .  S
O211        C230   1.286       .  A
O212        C229   1.286       .  A
O213       Zr221   2.435       .  S
O213        C228   1.285       .  A
O214       Zr219   2.393       .  S
O214       Zr221   2.373       .  S
O215       Zr220   2.376       .  S
O215       Zr221   2.364       .  S
O215        H250   0.966       .  S
O216       Zr219   2.407       .  S
O216       Zr236   2.380       .  S
O216        H253   0.961       .  S
O217       Zr220   2.386       .  S
O217       Zr236   2.387       .  S
Zr218       O243   2.441       .  S
Zr218       O245   2.464       .  S
Zr218      O1549   2.477       .  S
Zr218      O1545   2.431       .  S
Zr218       O224   2.408       .  S
Zr218       O225   2.424       .  S
Zr218       O226   2.375       .  S
Zr218       O227   2.378       .  S
Zr219       O238   2.435       .  S
Zr219       O231   2.435       .  S
Zr219       O232   2.442       .  S
Zr219       O225   2.394       .  S
Zr219       O226   2.401       .  S
Zr220       O222   2.437       .  S
Zr220       O244   2.437       .  S
Zr220       O246   2.410       .  S
Zr220       O224   2.381       .  S
Zr220       O227   2.397       .  S
Zr221       O247   2.434       .  S
Zr221       O248   2.436       .  S
Zr221       O223   2.433       .  S
Zr221       O224   2.397       .  S
Zr221       O225   2.391       .  S
O222        H259   0.990       .  S
O223        H254   0.990       .  S
O223        H268   0.989       .  S
O225        H251   0.965       .  S
O226       Zr236   2.382       .  S
O227       Zr236   2.382       .  S
O227        H252   0.966       .  S
C228        C293   1.470       .  S
C229        C581   1.490       .  S
C230        C933   1.464       .  S
O231        H267   0.990       .  S
O232       C1546   1.284       .  A
O233      Zr1530   2.423       .  S
O233        C234   1.284   1_565  A
C234       O1544   1.284   1_545  A
C234        C309   1.499       .  S
O235       Zr236   2.437       .  S
O235        H264   0.990       .  S
Zr236       O239   2.436       .  S
Zr236       O240   2.435       .  S
Zr236       O241   2.396       .  S
O237      Zr1530   2.474       .  S
O237        C242   1.291   1_565  A
O238        H255   0.990       .  S
O238        H270   0.989       .  S
O239        H256   0.988       .  S
O240        H260   0.990       .  S
O240        H269   0.990       .  S
O241       C1554   1.275       .  A
C242       O1553   1.276   1_545  A
C242        C565   1.483       .  S
O243        H262   0.990       .  S
O243        H266   0.990       .  S
O244        H258   0.987       .  S
O244        H265   0.988       .  S
O245        C249   1.291       .  A
O246        C249   1.279       .  A
O247        H257   0.990       .  S
O248        H261   0.990       .  S
C249        C389   1.500       .  S
C272        C274   1.623       .  S
C272        C341   1.629       .  S
C272        C357   1.641       .  S
C273        C274   1.410       .  A
C273        C278   1.402       .  A
C273        H280   1.032       .  S
C274        C275   1.468       .  A
C275        C282   1.526       .  S
C275        C276   1.418       .  A
C276        C277   1.390       .  A
C276        H281   1.085       .  S
C277        C886   1.470   1_554  S
C277        C278   1.400       .  A
C278        C279   1.524       .  S
C279        F283   1.379       .  S
C279        F285   1.382       .  S
C279        F940   1.377   1_554  S
C282        F286   1.382       .  S
C282        F287   1.375       .  S
C282        F288   1.383       .  S
F284        C935   1.376       .  S
C289        C290   1.439       .  A
C289        C294   1.401       .  A
C289        H296   1.051       .  S
C290        C291   1.475       .  A
C291        C298   1.532       .  S
C291        C292   1.419       .  A
C292        C293   1.385       .  A
C292        H297   1.082       .  S
C293        C294   1.386       .  A
C294        C295   1.523       .  S
C295        F299   1.385       .  S
C295        F300   1.380       .  S
C295        F301   1.384       .  S
C298        F302   1.386       .  S
C298        F303   1.362       .  S
C298        F304   1.373       .  S
C305        C306   1.428       .  A
C305        C310   1.414       .  A
C305        H312   1.037       .  S
C306        C307   1.481       .  A
C307        C314   1.552       .  S
C307        C308   1.412       .  A
C308        C309   1.388       .  A
C308        H313   1.085       .  S
C309        C310   1.401       .  A
C310        C311   1.520       .  S
C311        F315   1.383       .  S
C311        F316   1.383       .  S
C311        F317   1.383       .  S
C314        F318   1.362       .  S
C314        F319   1.385       .  S
C314        F320   1.388       .  S
C321        C322   1.394       .  A
C321        C326   1.420       .  A
C321        H328   1.087       .  S
C322        C323   1.393       .  A
C323        C330   1.522       .  S
C323        C324   1.408       .  A
C324        C325   1.438       .  A
C324        H329   1.057       .  S
C325        C326   1.467       .  A
C326        C327   1.537       .  S
C327        F331   1.381       .  S
C327        F332   1.363       .  S
C327        F333   1.378       .  S
C330        F334   1.383       .  S
C330        F335   1.384       .  S
C330        F336   1.384       .  S
C337        C338   1.397       .  A
C337        C342   1.425       .  A
C337        H344   1.083       .  S
C338        C339   1.400       .  A
C339        C346   1.512       .  S
C339        C340   1.421       .  A
C340        C341   1.422       .  A
C340        H345   1.062       .  S
C341        C342   1.450       .  A
C342        C343   1.525       .  S
C343        F347   1.377       .  S
C343        F348   1.381       .  S
C343        F349   1.368       .  S
C346        F350   1.383       .  S
C346        F351   1.383       .  S
C346        F352   1.381       .  S
C353        C354   1.390       .  A
C353        C358   1.411       .  A
C353        H360   1.079       .  S
C354       C1479   1.518       .  S
C354       C1667   1.416       .  A
C355        C362   1.517       .  S
C355       C1666   1.412   1_565  A
C355       C1668   1.420       .  A
C356        C357   1.436       .  A
C356       C1667   1.424       .  A
C356        H361   1.070       .  S
C357        C358   1.472       .  A
C358        C359   1.534       .  S
C359        F363   1.374       .  S
C359        F364   1.389       .  S
C359        F365   1.373       .  S
C362        F366   1.383   1_565  S
C362        F367   1.383   1_565  S
C362        F368   1.385       .  S
C369        C370   1.434       .  A
C369       C1030   1.410       .  A
C369        H376   1.041       .  S
C370        C371   1.486       .  A
C371        C378   1.529       .  S
C371       C1028   1.421       .  A
C372        C373   1.380       .  A
C372       C1027   1.418       .  A
C372        H377   1.085       .  S
C373        C374   1.395       .  A
C374        C375   1.525       .  S
C374       C1025   1.411       .  A
C375        F380   1.383   1_556  S
C375        F381   1.381   1_556  S
C375       F1035   1.385       .  S
C378        F382   1.353       .  S
C378        F383   1.389   1_455  S
C378        F384   1.380       .  S
F379       C1031   1.384       .  S
C385        C386   1.429       .  A
C385        C390   1.404       .  A
C385        H392   1.067       .  S
C386        C387   1.459       .  A
C387        C394   1.540       .  S
C387        C388   1.410       .  A
C388        C389   1.399       .  A
C388        H393   1.085       .  S
C389        C390   1.420       .  A
C390        C391   1.522       .  S
C391        F395   1.384       .  S
C391        F396   1.380       .  S
C391        F397   1.383       .  S
C394        F398   1.381       .  S
C394        F399   1.370       .  S
C394       F1712   1.389       .  S
F400       C1706   1.389       .  S
C401        C402   1.399       .  A
C401        C406   1.434       .  A
C401        H408   1.082   1_455  S
C402       C1405   1.506       .  S
C402        C403   1.409       .  A
C403       C1722   1.521       .  S
C403        C404   1.402       .  A
C404        C405   1.426       .  A
C404        H409   1.067       .  S
C405        C406   1.472       .  A
C406        C407   1.542       .  S
C407        F411   1.385   1_455  S
C407        F412   1.363       .  S
C407        F413   1.373   1_455  S
C410       C1715   1.521       .  S
C410        F414   1.384       .  S
C410        F415   1.381       .  S
C410        F416   1.382       .  S
C417        C418   1.402       .  A
C417        C422   1.411       .  A
C417        H424   1.086       .  S
C418        C419   1.417       .  A
C419        C426   1.523       .  S
C419        C420   1.410       .  A
C420        C421   1.434       .  A
C420        H425   1.070       .  S
C421        C422   1.462       .  A
C422        C423   1.562       .  S
C423        F427   1.390       .  S
C423        F428   1.349       .  S
C423        F429   1.385       .  S
C426        F430   1.383   1_455  S
C426        F431   1.383       .  S
C426        F432   1.384       .  S
C433        C434   1.430       .  A
C433        C438   1.405       .  A
C433        H440   1.066       .  S
C434        C435   1.453       .  A
C435        C442   1.541       .  S
C435        C436   1.417       .  A
C436        C437   1.405       .  A
C436        H441   1.085       .  S
C437        C438   1.414       .  A
C438        C439   1.526       .  S
C439        F443   1.385       .  S
C439        F444   1.384       .  S
C439        F445   1.383       .  S
C442        F446   1.376       .  S
C442        F447   1.390       .  S
C442        F448   1.376       .  S
C449        C450   1.426       .  A
C449        C454   1.423       .  A
C449        H456   1.055       .  S
C450        C451   1.450       .  A
C451        C458   1.538       .  S
C451        C452   1.388       .  A
C452        C453   1.392       .  A
C452        H457   1.081       .  S
C453       C1404   1.485   1_545  S
C453        C454   1.412       .  A
C454       C1767   1.516       .  S
C455       C1766   1.516       .  S
C455        F459   1.385       .  S
C455        F460   1.383       .  S
C455        F461   1.381       .  S
C458        F462   1.380       .  S
C458        F463   1.362       .  S
C458        F464   1.388       .  S
C465        C466   1.413       .  A
C465        C470   1.393       .  A
C465        H472   1.073       .  S
C466        C467   1.462       .  A
C467        C474   1.531       .  S
C467        C468   1.414       .  A
C468        C469   1.393       .  A
C468        H473   1.086       .  S
C469        C470   1.404       .  A
C470        C471   1.525       .  S
C471        F475   1.383       .  S
C471        F476   1.381       .  S
C471        F477   1.372       .  S
C474        F478   1.381       .  S
C474        F479   1.366       .  S
C474        F480   1.384       .  S
C481        C486   1.407       .  A
C481       C1794   1.381       .  A
C481        H488   1.086       .  S
C482        C483   1.397       .  A
C482       C1793   1.379   1_545  A
C483        C490   1.520       .  S
C483        C484   1.403   1_545  A
C484       C1797   1.423       .  A
C484        H489   1.062       .  S
C485        C486   1.486       .  A
C485       C1796   1.421       .  A
C486        C487   1.541       .  S
C487        F491   1.388       .  S
C487        F492   1.357       .  S
C487        F493   1.380       .  S
C490        F494   1.384       .  S
C490        F495   1.379       .  S
C490        F496   1.380       .  S
C497        C498   1.409       .  A
C497        C502   1.407       .  A
C497        H504   1.085       .  S
C498        C499   1.421       .  A
C499        C506   1.521       .  S
C499        C500   1.406       .  A
C500        C501   1.427       .  A
C500        H505   1.071       .  S
C501        C502   1.442       .  A
C502        C503   1.549       .  S
C503        F507   1.386       .  S
C503        F508   1.365       .  S
C503        F509   1.387       .  S
C506        F510   1.382       .  S
C506        F511   1.383       .  S
C506        F512   1.386       .  S
C513        C514   1.428       .  A
C513        C518   1.425       .  A
C513        H520   1.070       .  S
C514        C515   1.476       .  A
C515        C522   1.554       .  S
C515        C516   1.404       .  A
C516        C517   1.398       .  A
C516        H521   1.084       .  S
C517        C683   1.513       .  S
C517        C518   1.412       .  A
C518        C519   1.514       .  S
C519        F523   1.384       .  S
C519        F524   1.382       .  S
C519        F525   1.382       .  S
C522        F526   1.362       .  S
C522        F527   1.389       .  S
C522        F528   1.383       .  S
C529        C534   1.402   1_565  A
C529       C1842   1.406       .  A
C529        H536   1.035       .  S
C530        C531   1.465       .  A
C530       C1841   1.408       .  A
C531        C538   1.540       .  S
C531        C532   1.429       .  A
C532       C1845   1.399       .  A
C532        H537   1.083       .  S
C533        C534   1.415       .  A
C533       C1844   1.398   1_545  A
C534        C535   1.531       .  S
C535        F539   1.377       .  S
C535        F540   1.383       .  S
C535        F541   1.381       .  S
C538        F542   1.367       .  S
C538        F543   1.385       .  S
C538        F544   1.378       .  S
C545        C546   1.403       .  A
C545        C550   1.424       .  A
C545        H552   1.085       .  S
C546        C547   1.402       .  A
C547        C554   1.520       .  S
C547        C548   1.398       .  A
C548        C549   1.416       .  A
C548        H553   1.048       .  S
C549        C550   1.454       .  A
C550        C551   1.520       .  S
C551        F555   1.383       .  S
C551        F556   1.383       .  S
C551        F557   1.367       .  S
C554        F558   1.381       .  S
C554        F559   1.378       .  S
C554        F560   1.381       .  S
C561        C562   1.425       .  A
C561        C566   1.412       .  A
C561        H568   1.056       .  S
C562        C563   1.466       .  A
C563        C570   1.545       .  S
C563        C564   1.412       .  A
C564        C565   1.388       .  A
C564        H569   1.085       .  S
C565        C566   1.402       .  A
C566        C567   1.520       .  S
C567        F571   1.385       .  S
C567        F572   1.383       .  S
C567        F573   1.383       .  S
C570        F574   1.383       .  S
C570        F575   1.364       .  S
C570        F576   1.385       .  S
C577        C578   1.437       .  A
C577        C582   1.394       .  A
C577        H584   1.069       .  S
C578        C579   1.463       .  A
C579        C586   1.532       .  S
C579        C580   1.421       .  A
C580        C581   1.398       .  A
C580        H585   1.082       .  S
C581        C582   1.409       .  A
C582        C583   1.530       .  S
C583        F587   1.385       .  S
C583        F588   1.383       .  S
C583        F589   1.383       .  S
C586        F590   1.370       .  S
C586        F591   1.368       .  S
C586        F592   1.387       .  S
C593        C594   1.388       .  A
C593        C598   1.413       .  A
C593        H600   1.083       .  S
C594        C595   1.394       .  A
C595        C602   1.521       .  S
C595        C596   1.406       .  A
C596        C597   1.426       .  A
C596        H601   1.034       .  S
C597        C598   1.473       .  A
C598        C599   1.539       .  S
C599        F603   1.386       .  S
C599        F604   1.371       .  S
C599        F605   1.377       .  S
C602        F606   1.382       .  S
C602        F607   1.383       .  S
C602        F608   1.382       .  S
C609        C610   1.398       .  A
C609        C614   1.393       .  A
C609        H616   1.085       .  S
C610        C611   1.422       .  A
C611        C618   1.513       .  S
C611        C612   1.427   1_455  A
C612        C613   1.421       .  A
C612        H617   1.065       .  S
C613        C614   1.439   1_655  A
C614        C615   1.529       .  S
C615        F619   1.387       .  S
C615        F620   1.371       .  S
C615        F621   1.383       .  S
C618        F622   1.381       .  S
C618        F623   1.383   1_455  S
C618        F624   1.383   1_455  S
C625        C626   1.424       .  A
C625        C630   1.405   1_655  A
C625        H632   1.072       .  S
C626        C627   1.469       .  A
C627        C634   1.537       .  S
C627        C628   1.401   1_655  A
C628        C629   1.386       .  A
C628       H1945   1.086       .  S
C629       C1487   1.471       .  S
C629        C630   1.408       .  A
C630        C631   1.522       .  S
C631        F635   1.385       .  S
C631        F636   1.380       .  S
C631        F637   1.384       .  S
H633       C1940   1.087   1_545  S
C634        F638   1.365       .  S
C634        F639   1.378       .  S
C634        F640   1.379       .  S
C641        C642   1.427       .  A
C641       C1302   1.404       .  A
C641        H648   1.061   1_655  S
C642        C643   1.437       .  A
C643        C650   1.526       .  S
C643       C1300   1.424       .  A
C644        C645   1.407       .  A
C644       C1299   1.421       .  A
C644        H649   1.083       .  S
C645        C646   1.408       .  A
C646        C647   1.521   1_655  S
C646       C1297   1.408       .  A
C647        F651   1.383       .  S
C647        F652   1.378       .  S
C647        F653   1.383       .  S
C650        F654   1.380       .  S
C650        F655   1.372       .  S
C650        F656   1.387       .  S
C657        C792   1.780       .  S
C657       C1269   1.635       .  S
C657       C1282   1.587       .  S
C657       C1298   1.634       .  S
C658        C725   1.766       .  S
C658       C1218   1.607       .  S
C658       C1234   1.655       .  S
C658       C1253   1.627       .  S
Zr659       O660   2.438       .  S
Zr659       O661   2.489       .  S
Zr659       O662   2.497       .  S
Zr659       O665   2.445       .  S
Zr659       O667   2.390       .  S
Zr659       O668   2.389       .  S
Zr659       O669   2.420       .  S
Zr659       O670   2.422       .  S
O660        H716   0.989       .  S
O660        H724   0.989       .  S
O661        C681   1.291       .  A
O662        C683   1.293       .  A
O663       Zr673   2.395       .  S
O663        C682   1.276       .  A
O664       Zr672   2.388       .  S
O664        C683   1.278       .  A
O665        C682   1.287       .  A
O666       Zr674   2.377       .  S
O666        C681   1.269       .  A
O667       Zr672   2.400       .  S
O667       Zr674   2.381       .  S
O668       Zr673   2.380       .  S
O668       Zr674   2.382       .  S
O668        H703   0.966       .  S
O669       Zr672   2.396       .  S
O669       Zr689   2.401       .  S
O669        H706   0.965       .  S
O670       Zr673   2.381       .  S
O670       Zr689   2.395       .  S
Zr671       O696   2.441       .  S
Zr671       O690   2.424       .  S
Zr671       O698   2.481       .  S
Zr671       O686   2.485       .  S
Zr671       O677   2.391       .  S
Zr671       O678   2.398       .  S
Zr671       O679   2.386       .  S
Zr671       O680   2.393       .  S
Zr672       O691   2.436       .  S
Zr672       O684   2.437       .  S
Zr672       O685   2.402       .  S
Zr672       O678   2.396       .  S
Zr672       O679   2.385       .  S
Zr673       O675   2.436       .  S
Zr673       O697   2.441       .  S
Zr673       O699   2.369       .  S
Zr673       O677   2.387       .  S
Zr673       O680   2.381       .  S
Zr674       O700   2.436       .  S
Zr674       O701   2.436       .  S
Zr674       O676   2.436       .  S
Zr674       O677   2.371       .  S
Zr674       O678   2.375       .  S
O675        H712   0.990       .  S
O676        H707   0.989       .  S
O676        H721   0.989       .  S
O678        H704   0.963       .  S
O679       Zr689   2.374       .  S
O680       Zr689   2.377       .  S
O680        H705   0.965       .  S
C681       C1189   1.501       .  S
C682       C1138   1.470       .  S
O684        H720   0.990       .  S
O685        C687   1.277       .  A
O686        C687   1.294       .  A
C687       C1202   1.480       .  S
O688       Zr689   2.439       .  S
O688        H717   0.991       .  S
Zr689       O692   2.435       .  S
Zr689       O693   2.442       .  S
Zr689       O694   2.418       .  S
O690        C695   1.279       .  A
O691        H708   0.990       .  S
O691        H723   0.990       .  S
O692        H709   0.990       .  S
O693        H713   0.990       .  S
O693        H722   0.990       .  S
O694        C695   1.284       .  A
C695       C1154   1.488       .  S
O696        H715   0.990       .  S
O696        H719   0.989       .  S
O697        H711   0.990       .  S
O697        H718   0.990       .  S
O698        C702   1.293       .  A
O699        C702   1.274       .  A
O700        H710   0.990       .  S
O701        H714   0.990       .  S
C702       C1250   1.475       .  S
C725       C1106   1.611       .  S
C725       C1122   1.590       .  S
C725       C1170   1.622       .  S
Zr726       O727   2.442       .  S
Zr726       O728   2.468       .  S
Zr726       O729   2.468       .  S
Zr726       O732   2.479       .  S
Zr726       O734   2.392       .  S
Zr726       O735   2.392       .  S
Zr726       O736   2.426       .  S
Zr726       O737   2.415       .  S
O727        H783   0.991       .  S
O727        H791   0.990       .  S
O728        C748   1.288       .  A
O729        C750   1.291       .  A
O730       Zr740   2.441   1_455  S
O730        C749   1.285       .  A
O731       Zr739   2.437       .  S
O731        C750   1.284       .  A
O732        C749   1.293   1_655  A
O733       Zr741   2.414       .  S
O733        C748   1.276       .  A
O734       Zr739   2.395       .  S
O734       Zr741   2.377       .  S
O735       Zr740   2.400       .  S
O735       Zr741   2.384       .  S
O735        H770   0.966       .  S
O736       Zr739   2.405       .  S
O736       Zr756   2.395   1_655  S
O736        H773   0.965       .  S
O737       Zr740   2.393       .  S
O737       Zr756   2.409   1_655  S
Zr738       O763   2.442       .  S
Zr738       O757   2.414       .  S
Zr738       O765   2.441       .  S
Zr738       O753   2.403       .  S
Zr738       O744   2.389       .  S
Zr738       O745   2.402       .  S
Zr738       O746   2.386       .  S
Zr738       O747   2.378       .  S
Zr739       O758   2.439       .  S
Zr739       O751   2.435       .  S
Zr739       O752   2.448       .  S
Zr739       O745   2.398       .  S
Zr739       O746   2.390       .  S
Zr740       O742   2.433   1_655  S
Zr740       O764   2.438       .  S
Zr740       O766   2.450       .  S
Zr740       O744   2.392       .  S
Zr740       O747   2.390       .  S
Zr741       O767   2.434       .  S
Zr741       O768   2.439       .  S
Zr741       O743   2.441       .  S
Zr741       O744   2.392       .  S
Zr741       O745   2.373       .  S
O742        H779   0.990       .  S
O743        H774   0.990       .  S
O743        H788   0.990       .  S
O745        H771   0.964       .  S
O746       Zr756   2.365   1_655  S
O747       Zr756   2.382   1_655  S
O747        H772   0.966   1_655  S
C748       C2421   1.489       .  S
C749       C2370   1.510       .  S
C750       C1093   1.508       .  S
O751        H787   0.990       .  S
O752        C754   1.287       .  A
O753        C754   1.280       .  A
C754       C1125   1.464       .  S
O755       Zr756   2.435       .  S
O755        H784   0.990       .  S
Zr756       O759   2.437       .  S
Zr756       O760   2.438       .  S
Zr756       O761   2.442       .  S
O757        C762   1.278   1_655  A
O758        H775   0.990       .  S
O758        H790   0.990       .  S
O759        H776   0.990       .  S
O760        H780   0.991       .  S
O760        H789   0.990       .  S
O761        C762   1.287       .  A
C762       C1074   1.484       .  S
O763        H782   0.991       .  S
O763        H786   0.991       .  S
O764        H778   0.990       .  S
O764        H785   0.990       .  S
O765        C769   1.281       .  A
O766        C769   1.287       .  A
O767        H777   0.990       .  S
O768        H781   0.990       .  S
C769       C1301   1.493       .  S
C792       C1090   1.639       .  S
C792       C1186   1.626       .  S
C792       C1205   1.612       .  S
C793        C928   1.768       .  S
C793       C1042   1.635       .  S
C793       C1141   1.618       .  S
C793       C1157   1.606       .  S
C794        C861   1.776       .  S
C794       C1026   1.679       .  S
C794       C1061   1.619       .  S
C794       C1077   1.649       .  S
Zr795       O796   2.443       .  S
Zr795       O797   2.485       .  S
Zr795       O798   2.503       .  S
Zr795       O801   2.474       .  S
Zr795       O803   2.396       .  S
Zr795       O804   2.391       .  S
Zr795       O805   2.420       .  S
Zr795       O806   2.420       .  S
O796        H852   0.990       .  S
O796        H860   0.991       .  S
O797        C817   1.293       .  A
O798        C819   1.296       .  A
O799       Zr809   2.406       .  S
O799        C818   1.281       .  A
O800       Zr808   2.392       .  S
O800        C819   1.277       .  A
O801        C818   1.292       .  A
O802       Zr810   2.421       .  S
O802        C817   1.281       .  A
O803       Zr808   2.409       .  S
O803       Zr810   2.377       .  S
O804       Zr809   2.387       .  S
O804       Zr810   2.379       .  S
O804        H839   0.965       .  S
O805       Zr808   2.410       .  S
O805       Zr825   2.384       .  S
O805        H842   0.965       .  S
O806       Zr809   2.392       .  S
O806       Zr825   2.396       .  S
Zr807       O832   2.439       .  S
Zr807       O826   2.434       .  S
Zr807       O834   2.459       .  S
Zr807       O822   2.438       .  S
Zr807       O813   2.397       .  S
Zr807       O814   2.410       .  S
Zr807       O815   2.372       .  S
Zr807       O816   2.384       .  S
Zr808       O827   2.435       .  S
Zr808       O820   2.434       .  S
Zr808       O821   2.454       .  S
Zr808       O814   2.386       .  S
Zr808       O815   2.376       .  S
Zr809       O811   2.435       .  S
Zr809       O833   2.440       .  S
Zr809       O835   2.427       .  S
Zr809       O813   2.384       .  S
Zr809       O816   2.378       .  S
Zr810       O836   2.433       .  S
Zr810       O837   2.435       .  S
Zr810       O812   2.439       .  S
Zr810       O813   2.396       .  S
Zr810       O814   2.406       .  S
O811        H848   0.990   1_455  S
O812        H843   0.991       .  S
O812        H857   0.990       .  S
O814        H840   0.966       .  S
O815       Zr825   2.373       .  S
O816       Zr825   2.385       .  S
O816        H841   0.966       .  S
C817        C994   1.490       .  S
C818       C1266   1.495       .  S
C819        C978   1.483       .  S
O820        H856   0.990       .  S
O821        C823   1.285       .  A
O822        C823   1.288       .  A
C823       C2322   1.513       .  S
O824       Zr825   2.438   1_655  S
O824        H853   0.990   1_655  S
Zr825       O828   2.436       .  S
Zr825       O829   2.440   1_455  S
Zr825       O830   2.426       .  S
O826        C831   1.286       .  A
O827        H844   0.990       .  S
O827        H859   0.990       .  S
O828        H845   0.990       .  S
O829        H849   0.990       .  S
O829        H858   0.989       .  S
O830        C831   1.282       .  A
C831       C2597   1.479       .  S
O832        H851   0.990       .  S
O832        H855   0.990       .  S
O833        H847   0.990       .  S
O833        H854   0.990       .  S
O834        C838   1.289       .  A
O835        C838   1.283       .  A
O836        H846   0.990       .  S
O837        H850   0.990       .  S
C838       C1029   1.487       .  S
C861        C946   1.647       .  S
C861        C962   1.633       .  S
C861        C981   1.637       .  S
Zr862       O863   2.443       .  S
Zr862       O864   2.422       .  S
Zr862       O865   2.433       .  S
Zr862       O868   2.449       .  S
Zr862       O870   2.399       .  S
Zr862       O871   2.372       .  S
Zr862       O872   2.406       .  S
Zr862       O873   2.398       .  S
O863        H919   0.991       .  S
O863        H927   0.990       .  S
O864        C884   1.280       .  A
O865        C886   1.282       .  A
O866       Zr876   2.397       .  S
O866        C885   1.276       .  A
O867       Zr875   2.435       .  S
O867        C886   1.285       .  A
O868        C885   1.288       .  A
O869       Zr877   2.432       .  S
O869        C884   1.284       .  A
O870       Zr875   2.399       .  S
O870       Zr877   2.375       .  S
O871       Zr876   2.375       .  S
O871       Zr877   2.362       .  S
O871        H906   0.966       .  S
O872       Zr875   2.409       .  S
O872       Zr892   2.379       .  S
O872        H909   0.962       .  S
O873       Zr876   2.392       .  S
O873       Zr892   2.388       .  S
Zr874       O899   2.442       .  S
Zr874      O2205   2.470       .  S
Zr874       O901   2.452       .  S
Zr874      O2201   2.415       .  S
Zr874       O880   2.404       .  S
Zr874       O881   2.422       .  S
Zr874       O882   2.380       .  S
Zr874       O883   2.377       .  S
Zr875       O894   2.437       .  S
Zr875       O887   2.434       .  S
Zr875       O888   2.450       .  S
Zr875       O881   2.393       .  S
Zr875       O882   2.400       .  S
Zr876       O878   2.435       .  S
Zr876       O900   2.436       .  S
Zr876       O902   2.418       .  S
Zr876       O880   2.378       .  S
Zr876       O883   2.393       .  S
Zr877       O903   2.436       .  S
Zr877       O904   2.437       .  S
Zr877       O879   2.434       .  S
Zr877       O880   2.396       .  S
Zr877       O881   2.392       .  S
O878        H915   0.990       .  S
O879        H910   0.990       .  S
O879        H924   0.990       .  S
O881        H907   0.965       .  S
O882       Zr892   2.385       .  S
O883       Zr892   2.382       .  S
O883        H908   0.966       .  S
C884        C949   1.470       .  S
C885       C1237   1.493       .  S
O887        H923   0.990       .  S
O888       C2202   1.285       .  A
O889      Zr2186   2.426       .  S
O889        C890   1.284   1_565  A
C890       O2200   1.284   1_545  A
C890        C965   1.494       .  S
O891       Zr892   2.437       .  S
O891        H920   0.990       .  S
Zr892       O895   2.436       .  S
Zr892       O896   2.433       .  S
Zr892       O897   2.400       .  S
O893      Zr2186   2.461       .  S
O893        C898   1.288   1_565  A
O894        H911   0.990       .  S
O894        H926   0.989       .  S
O895        H912   0.990       .  S
O896        H916   0.990       .  S
O896        H925   0.990       .  S
O897       C2210   1.276       .  A
C898       O2209   1.275   1_545  A
C898       C1221   1.475       .  S
O899        H918   0.991       .  S
O899        H922   0.990       .  S
O900        H914   0.987       .  S
O900        H921   0.988       .  S
O901        C905   1.288       .  A
O902        C905   1.280       .  A
O903        H913   0.990       .  S
O904        H917   0.990       .  S
C905       C1045   1.499       .  S
C928        C930   1.614       .  S
C928        C997   1.629       .  S
C928       C1013   1.637       .  S
C929        C930   1.406       .  A
C929        C934   1.399       .  A
C929        H936   1.033       .  S
C930        C931   1.467       .  A
C931        C938   1.526       .  S
C931        C932   1.416       .  A
C932        C933   1.389       .  A
C932        H937   1.085       .  S
C933        C934   1.400       .  A
C934        C935   1.521       .  S
C935        F939   1.380       .  S
C935        F941   1.382       .  S
C938        F942   1.381       .  S
C938        F943   1.376       .  S
C938        F944   1.383       .  S
C945        C946   1.433       .  A
C945        C950   1.396       .  A
C945        H952   1.046       .  S
C946        C947   1.478       .  A
C947        C954   1.539       .  S
C947        C948   1.422       .  A
C948        C949   1.388       .  A
C948        H953   1.082       .  S
C949        C950   1.385       .  A
C950        C951   1.522       .  S
C951        F955   1.385       .  S
C951        F956   1.380       .  S
C951        F957   1.384       .  S
C954        F958   1.386       .  S
C954        F959   1.366       .  S
C954        F960   1.371       .  S
C961        C962   1.432       .  A
C961        C966   1.415       .  A
C961        H968   1.041       .  S
C962        C963   1.475       .  A
C963        C970   1.546       .  S
C963        C964   1.411       .  A
C964        C965   1.388       .  A
C964        H969   1.086       .  S
C965        C966   1.400       .  A
C966        C967   1.521       .  S
C967        F971   1.381       .  S
C967        F972   1.383       .  S
C967        F973   1.383       .  S
C970        F974   1.362       .  S
C970        F975   1.386       .  S
C970        F976   1.387       .  S
C977        C978   1.395       .  A
C977        C982   1.420       .  A
C977        H984   1.087       .  S
C978        C979   1.394       .  A
C979        C986   1.522       .  S
C979        C980   1.410       .  A
C980        C981   1.443       .  A
C980        H985   1.055       .  S
C981        C982   1.464       .  A
C982        C983   1.536       .  S
C983        F987   1.380       .  S
C983        F988   1.363       .  S
C983        F989   1.378       .  S
C986        F990   1.383       .  S
C986        F991   1.383       .  S
C986        F992   1.385       .  S
C993        C994   1.395       .  A
C993        C998   1.424       .  A
C993       H1000   1.083       .  S
C994        C995   1.397       .  A
C995       C1002   1.511       .  S
C995        C996   1.418       .  A
C996        C997   1.422       .  A
C996       H1001   1.061       .  S
C997        C998   1.453       .  A
C998        C999   1.526       .  S
C999       F1003   1.380       .  S
C999       F1004   1.380       .  S
C999       F1005   1.366       .  S
C1002      F1006   1.383       .  S
C1002      F1007   1.383       .  S
C1002      F1008   1.380       .  S
C1009      C1010   1.389       .  A
C1009      C1014   1.410       .  A
C1009      H1016   1.078       .  S
C1010      C2135   1.510       .  S
C1010      C2323   1.411       .  A
C1011      C1018   1.517       .  S
C1011      C2322   1.413   1_565  A
C1011      C2324   1.419       .  A
C1012      C2323   1.418       .  A
C1012      C1013   1.434       .  A
C1012      H1017   1.068       .  S
C1013      C1014   1.475       .  A
C1014      C1015   1.536       .  S
C1015      F1019   1.375       .  S
C1015      F1020   1.388       .  S
C1015      F1021   1.371       .  S
C1018      F1022   1.382   1_565  S
C1018      F1023   1.383   1_565  S
C1018      F1024   1.385       .  S
C1025      C1026   1.433       .  A
C1025      H1032   1.040       .  S
C1026      C1027   1.482       .  A
C1027      C1034   1.526       .  S
C1028      C1029   1.381       .  A
C1028      H1033   1.086       .  S
C1029      C1030   1.395       .  A
C1030      C1031   1.524       .  S
C1031      F1036   1.384       .  S
C1031      F1037   1.382       .  S
C1034      F1038   1.352       .  S
C1034      F1039   1.387   1_455  S
C1034      F1040   1.379       .  S
C1041      C1042   1.427       .  A
C1041      C1046   1.403       .  A
C1041      H1048   1.068       .  S
C1042      C1043   1.462       .  A
C1043      C1050   1.540       .  S
C1043      C1044   1.409       .  A
C1044      C1045   1.398       .  A
C1044      H1049   1.085       .  S
C1045      C1046   1.417       .  A
C1046      C1047   1.518       .  S
C1047      F1051   1.384       .  S
C1047      F1052   1.381       .  S
C1047      F1053   1.381       .  S
C1050      F1054   1.382       .  S
C1050      F1055   1.371       .  S
C1050      F2368   1.389       .  S
F1056      C2362   1.389       .  S
C1057      C1058   1.397       .  A
C1057      C1062   1.432       .  A
C1057      H1064   1.082   1_455  S
C1058      C2061   1.502       .  S
C1058      C1059   1.407       .  A
C1059      C2378   1.522       .  S
C1059      C1060   1.404       .  A
C1060      C1061   1.431       .  A
C1060      H1065   1.068       .  S
C1061      C1062   1.475       .  A
C1062      C1063   1.546       .  S
C1063      F1067   1.387   1_455  S
C1063      F1068   1.364       .  S
C1063      F1069   1.373       .  S
C1066      C2371   1.520       .  S
C1066      F1070   1.383       .  S
C1066      F1071   1.380       .  S
C1066      F1072   1.382       .  S
C1073      C1074   1.403       .  A
C1073      C1078   1.412       .  A
C1073      H1080   1.086       .  S
C1074      C1075   1.414       .  A
C1075      C1082   1.523       .  S
C1075      C1076   1.412       .  A
C1076      C1077   1.440       .  A
C1076      H1081   1.071       .  S
C1077      C1078   1.453       .  A
C1078      C1079   1.553       .  S
C1079      F1083   1.389       .  S
C1079      F1084   1.347       .  S
C1079      F1085   1.386       .  S
C1082      F1086   1.383   1_455  S
C1082      F1087   1.383       .  S
C1082      F1088   1.385       .  S
C1089      C1090   1.428       .  A
C1089      C1094   1.407       .  A
C1089      H1096   1.066       .  S
C1090      C1091   1.456       .  A
C1091      C1098   1.540       .  S
C1091      C1092   1.420       .  A
C1092      C1093   1.405       .  A
C1092      H1097   1.084       .  S
C1093      C1094   1.417       .  A
C1094      C1095   1.525       .  S
C1095      F1099   1.385       .  S
C1095      F1100   1.383       .  S
C1095      F1101   1.382       .  S
C1098      F1102   1.375       .  S
C1098      F1103   1.389       .  S
C1098      F1104   1.376       .  S
C1105      C1106   1.424       .  A
C1105      C1110   1.423       .  A
C1105      H1112   1.055       .  S
C1106      C1107   1.453       .  A
C1107      C1114   1.536       .  S
C1107      C1108   1.391       .  A
C1108      C1109   1.392       .  A
C1108      H1113   1.084       .  S
C1109      C2060   1.486   1_545  S
C1109      C1110   1.409       .  A
C1110      C2423   1.516       .  S
C1111      C2422   1.516       .  S
C1111      F1115   1.384       .  S
C1111      F1116   1.384       .  S
C1111      F1117   1.381       .  S
C1114      F1118   1.380       .  S
C1114      F1119   1.360       .  S
C1114      F1120   1.387       .  S
C1121      C1122   1.414       .  A
C1121      C1126   1.393       .  A
C1121      H1128   1.074       .  S
C1122      C1123   1.464       .  A
C1123      C1130   1.535       .  S
C1123      C1124   1.414       .  A
C1124      C1125   1.393       .  A
C1124      H1129   1.086       .  S
C1125      C1126   1.402       .  A
C1126      C1127   1.524       .  S
C1127      F1131   1.384       .  S
C1127      F1132   1.381       .  S
C1127      F1133   1.375       .  S
C1130      F1134   1.382       .  S
C1130      F1135   1.371       .  S
C1130      F1136   1.384       .  S
C1137      C2450   1.381       .  A
C1137      C1142   1.407       .  A
C1137      H1144   1.086       .  S
C1138      C2449   1.380   1_545  A
C1138      C1139   1.396       .  A
C1139      C1146   1.518       .  S
C1139      C1140   1.402   1_545  A
C1140      C2453   1.421       .  A
C1140      H1145   1.062       .  S
C1141      C2452   1.418       .  A
C1141      C1142   1.486       .  A
C1142      C1143   1.543       .  S
C1143      F1147   1.389       .  S
C1143      F1148   1.355       .  S
C1143      F1149   1.379       .  S
C1146      F1150   1.384       .  S
C1146      F1151   1.380       .  S
C1146      F1152   1.379       .  S
C1153      C1154   1.408       .  A
C1153      C1158   1.405       .  A
C1153      H1160   1.085       .  S
C1154      C1155   1.420       .  A
C1155      C1162   1.518       .  S
C1155      C1156   1.407       .  A
C1156      C1157   1.428       .  A
C1156      H1161   1.075       .  S
C1157      C1158   1.442       .  A
C1158      C1159   1.550       .  S
C1159      F1163   1.386       .  S
C1159      F1164   1.364       .  S
C1159      F1165   1.386       .  S
C1162      F1166   1.382       .  S
C1162      F1167   1.384       .  S
C1162      F1168   1.385       .  S
C1169      C1170   1.427       .  A
C1169      C1174   1.427       .  A
C1169      H1176   1.071       .  S
C1170      C1171   1.475       .  A
C1171      C1178   1.551       .  S
C1171      C1172   1.402       .  A
C1172      C1173   1.397       .  A
C1172      H1177   1.084       .  S
C1173      C1174   1.415       .  A
C1174      C1175   1.516       .  S
C1175      F1179   1.384       .  S
C1175      F1180   1.382       .  S
C1175      F1181   1.382       .  S
C1178      F1182   1.361       .  S
C1178      F1183   1.389       .  S
C1178      F1184   1.382       .  S
C1185      C2498   1.407       .  A
C1185      C1190   1.405   1_565  A
C1185      H1192   1.034       .  S
C1186      C2497   1.407       .  A
C1186      C1187   1.469       .  A
C1187      C1194   1.543       .  S
C1187      C1188   1.430       .  A
C1188      C2501   1.399       .  A
C1188      H1193   1.083       .  S
C1189      C2500   1.397   1_545  A
C1189      C1190   1.416       .  A
C1190      C1191   1.534       .  S
C1191      F1195   1.378       .  S
C1191      F1196   1.383       .  S
C1191      F1197   1.382       .  S
C1194      F1198   1.367       .  S
C1194      F1199   1.386       .  S
C1194      F1200   1.377       .  S
C1201      C1202   1.400       .  A
C1201      C1206   1.424       .  A
C1201      H1208   1.085       .  S
C1202      C1203   1.398       .  A
C1203      C1210   1.520       .  S
C1203      C1204   1.397       .  A
C1204      C1205   1.418       .  A
C1204      H1209   1.047       .  S
C1205      C1206   1.457       .  A
C1206      C1207   1.522       .  S
C1207      F1211   1.383       .  S
C1207      F1212   1.384       .  S
C1207      F1213   1.369       .  S
C1210      F1214   1.383       .  S
C1210      F1215   1.381       .  S
C1210      F1216   1.383       .  S
C1217      C1218   1.424       .  A
C1217      C1222   1.410       .  A
C1217      H1224   1.057       .  S
C1218      C1219   1.463       .  A
C1219      C1226   1.544       .  S
C1219      C1220   1.410       .  A
C1220      C1221   1.387       .  A
C1220      H1225   1.085       .  S
C1221      C1222   1.400       .  A
C1222      C1223   1.521       .  S
C1223      F1227   1.384       .  S
C1223      F1228   1.383       .  S
C1223      F1229   1.383       .  S
C1226      F1230   1.385       .  S
C1226      F1231   1.364       .  S
C1226      F1232   1.383       .  S
C1233      C1234   1.438       .  A
C1233      C1238   1.394       .  A
C1233      H1240   1.067       .  S
C1234      C1235   1.463       .  A
C1235      C1242   1.531       .  S
C1235      C1236   1.423       .  A
C1236      C1237   1.398       .  A
C1236      H1241   1.082       .  S
C1237      C1238   1.409       .  A
C1238      C1239   1.531       .  S
C1239      F1243   1.385       .  S
C1239      F1244   1.383       .  S
C1239      F1245   1.383       .  S
C1242      F1246   1.369       .  S
C1242      F1247   1.367       .  S
C1242      F1248   1.386       .  S
C1249      C1250   1.387       .  A
C1249      C1254   1.410       .  A
C1249      H1256   1.083       .  S
C1250      C1251   1.394       .  A
C1251      C1258   1.520       .  S
C1251      C1252   1.408       .  A
C1252      C1253   1.428       .  A
C1252      H1257   1.038       .  S
C1253      C1254   1.473       .  A
C1254      C1255   1.540       .  S
C1255      F1259   1.386       .  S
C1255      F1260   1.370       .  S
C1255      F1261   1.377       .  S
C1258      F1262   1.383       .  S
C1258      F1263   1.383       .  S
C1258      F1264   1.383       .  S
C1265      C1266   1.399       .  A
C1265      C1270   1.394       .  A
C1265      H1272   1.085       .  S
C1266      C1267   1.419   1_455  A
C1267      C1274   1.515       .  S
C1267      C1268   1.429       .  A
C1268      C1269   1.428       .  A
C1268      H1273   1.061       .  S
C1269      C1270   1.438   1_655  A
C1270      C1271   1.532       .  S
C1271      F1275   1.386       .  S
C1271      F1276   1.370       .  S
C1271      F1277   1.383       .  S
C1274      F1278   1.382   1_655  S
C1274      F1279   1.383       .  S
C1274      F1280   1.382       .  S
C1281      C1282   1.423       .  A
C1281      C1286   1.403   1_655  A
C1281      H1288   1.075       .  S
C1282      C1283   1.468       .  A
C1283      C1290   1.537       .  S
C1283      C1284   1.404   1_655  A
C1284      C1285   1.390       .  A
C1284      H2601   1.086       .  S
C1285      C2143   1.472       .  S
C1285      C1286   1.408       .  A
C1286      C1287   1.521       .  S
C1287      F1291   1.385       .  S
C1287      F1292   1.382       .  S
C1287      F1293   1.383       .  S
H1289      C2596   1.087   1_545  S
C1290      F1294   1.367       .  S
C1290      F1295   1.377       .  S
C1290      F1296   1.379       .  S
C1297      C1298   1.430       .  A
C1297      H1304   1.059   1_655  S
C1298      C1299   1.432       .  A
C1299      C1306   1.523       .  S
C1300      C1301   1.410   1_554  A
C1300      H1305   1.083   1_554  S
C1301      C1302   1.408   1_556  A
C1302      C1303   1.523   1_654  S
C1303      F1307   1.384   1_556  S
C1303      F1308   1.380       .  S
C1303      F1309   1.382       .  S
C1306      F1310   1.381       .  S
C1306      F1311   1.375       .  S
C1306      F1312   1.387       .  S
C1313      C1448   1.782       .  S
C1313      C1925   1.627       .  S
C1313      C1938   1.590       .  S
C1313      C1954   1.630       .  S
C1314      C1381   1.767       .  S
C1314      C1874   1.611       .  S
C1314      C1890   1.651       .  S
C1314      C1909   1.632       .  S
Zr1315     O1316   2.437       .  S
Zr1315     O1317   2.490       .  S
Zr1315     O1318   2.478       .  S
Zr1315     O1321   2.441       .  S
Zr1315     O1323   2.390       .  S
Zr1315     O1324   2.382       .  S
Zr1315     O1325   2.426       .  S
Zr1315     O1326   2.413       .  S
O1316      H1372   0.989       .  S
O1316      H1380   0.989       .  S
O1317      C1337   1.292       .  A
O1318      C1339   1.289       .  A
O1319     Zr1329   2.384       .  S
O1319      C1338   1.274       .  A
O1320     Zr1328   2.403       .  S
O1320      C1339   1.282       .  A
O1321      C1338   1.287       .  A
O1322     Zr1330   2.382       .  S
O1322      C1337   1.270       .  A
O1323     Zr1328   2.398       .  S
O1323     Zr1330   2.377       .  S
O1324     Zr1329   2.377       .  S
O1324     Zr1330   2.379       .  S
O1324      H1359   0.965       .  S
O1325     Zr1328   2.400       .  S
O1325     Zr1345   2.400       .  S
O1325      H1362   0.966       .  S
O1326     Zr1329   2.381       .  S
O1326     Zr1345   2.394       .  S
Zr1327     O1352   2.440       .  S
Zr1327     O1346   2.429       .  S
Zr1327     O1354   2.501       .  S
Zr1327     O1342   2.481       .  S
Zr1327     O1333   2.388       .  S
Zr1327     O1334   2.404       .  S
Zr1327     O1335   2.392       .  S
Zr1327     O1336   2.381       .  S
Zr1328     O1347   2.439       .  S
Zr1328     O1340   2.436       .  S
Zr1328     O1341   2.423       .  S
Zr1328     O1334   2.397       .  S
Zr1328     O1335   2.390       .  S
Zr1329     O1331   2.435       .  S
Zr1329     O1353   2.444       .  S
Zr1329     O1355   2.363       .  S
Zr1329     O1333   2.390       .  S
Zr1329     O1336   2.382       .  S
Zr1330     O1356   2.435       .  S
Zr1330     O1357   2.437       .  S
Zr1330     O1332   2.441       .  S
Zr1330     O1333   2.382       .  S
Zr1330     O1334   2.368       .  S
O1331      H1368   0.990       .  S
O1332      H1363   0.989       .  S
O1332      H1377   0.990       .  S
O1334      H1360   0.963       .  S
O1335     Zr1345   2.372       .  S
O1336     Zr1345   2.378       .  S
O1336      H1361   0.965       .  S
C1337      C1845   1.505       .  S
C1338      C1794   1.466       .  S
C1339      C2485   1.505   1_554  S
O1340      H1376   0.990       .  S
O1341      C1343   1.282       .  A
O1342      C1343   1.293       .  A
C1343      C1858   1.488       .  S
O1344     Zr1345   2.439       .  S
O1344      H1373   0.991       .  S
Zr1345     O1348   2.436       .  S
Zr1345     O1349   2.440       .  S
Zr1345     O1350   2.419       .  S
O1346      C1351   1.280       .  A
O1347      H1364   0.990       .  S
O1347      H1379   0.990       .  S
O1348      H1365   0.990       .  S
O1349      H1369   0.990       .  S
O1349      H1378   0.990       .  S
O1350      C1351   1.283       .  A
C1351      C1810   1.493       .  S
O1352      H1371   0.989       .  S
O1352      H1375   0.989       .  S
O1353      H1367   0.990       .  S
O1353      H1374   0.990       .  S
O1354      C1358   1.297       .  A
O1355      C1358   1.272       .  A
O1356      H1366   0.990       .  S
O1357      H1370   0.990       .  S
C1358      C1906   1.481       .  S
C1381      C1762   1.603       .  S
C1381      C1778   1.585       .  S
C1381      C1826   1.625       .  S
Zr1382     O1383   2.442       .  S
Zr1382     O1384   2.465       .  S
Zr1382     O1385   2.462       .  S
Zr1382     O1388   2.474       .  S
Zr1382     O1390   2.392       .  S
Zr1382     O1391   2.389       .  S
Zr1382     O1392   2.426       .  S
Zr1382     O1393   2.414       .  S
O1383      H1439   0.990       .  S
O1383      H1447   0.990       .  S
O1384      C1404   1.287       .  A
O1385      C1406   1.290       .  A
O1386     Zr1396   2.430   1_455  S
O1386      C1405   1.283   1_565  A
O1387     Zr1395   2.434       .  S
O1387      C1406   1.284       .  A
O1388      C1405   1.292   1_665  A
O1389     Zr1397   2.409       .  S
O1389      C1404   1.277       .  A
O1390     Zr1395   2.397       .  S
O1390     Zr1397   2.382       .  S
O1391     Zr1396   2.398       .  S
O1391     Zr1397   2.385       .  S
O1391      H1426   0.966       .  S
O1392     Zr1395   2.405       .  S
O1392     Zr1412   2.400   1_655  S
O1392      H1429   0.966       .  S
O1393     Zr1396   2.391       .  S
O1393     Zr1412   2.410   1_655  S
Zr1394     O1419   2.439       .  S
Zr1394     O1413   2.406       .  S
Zr1394     O1421   2.433       .  S
Zr1394     O1409   2.398       .  S
Zr1394     O1400   2.387       .  S
Zr1394     O1401   2.401       .  S
Zr1394     O1402   2.379       .  S
Zr1394     O1403   2.375       .  S
Zr1395     O1414   2.435       .  S
Zr1395     O1407   2.434       .  S
Zr1395     O1408   2.448       .  S
Zr1395     O1401   2.399       .  S
Zr1395     O1402   2.384       .  S
Zr1396     O1398   2.431   1_655  S
Zr1396     O1420   2.438       .  S
Zr1396     O1422   2.439       .  S
Zr1396     O1400   2.390       .  S
Zr1396     O1403   2.390       .  S
Zr1397     O1423   2.437       .  S
Zr1397     O1424   2.439       .  S
Zr1397     O1399   2.441       .  S
Zr1397     O1400   2.391       .  S
Zr1397     O1401   2.373       .  S
O1398      H1435   0.989       .  S
O1399      H1430   0.990       .  S
O1399      H1444   0.990       .  S
O1401      H1427   0.964       .  S
O1402     Zr1412   2.362   1_655  S
O1403     Zr1412   2.378   1_655  S
O1403      H1428   0.966   1_655  S
C1406      C1749   1.506       .  S
O1407      H1443   0.990       .  S
O1408      C1410   1.287       .  A
O1409      C1410   1.279       .  A
C1410      C1781   1.464       .  S
O1411     Zr1412   2.437       .  S
O1411      H1440   0.990       .  S
Zr1412     O1415   2.436       .  S
Zr1412     O1416   2.440       .  S
Zr1412     O1417   2.447       .  S
O1413      C1418   1.276   1_655  A
O1414      H1431   0.990       .  S
O1414      H1446   0.990       .  S
O1415      H1432   0.990       .  S
O1416      H1436   0.990       .  S
O1416      H1445   0.990       .  S
O1417      C1418   1.288       .  A
C1418      C1730   1.484       .  S
O1419      H1438   0.991       .  S
O1419      H1442   0.991       .  S
O1420      H1434   0.990       .  S
O1420      H1441   0.990   1_565  S
O1421      C1425   1.280       .  A
O1422      C1425   1.285       .  A
O1423      H1433   0.990       .  S
O1424      H1437   0.990       .  S
C1425      C1957   1.485       .  S
C1448      C1746   1.643       .  S
C1448      C1842   1.622       .  S
C1448      C1861   1.616       .  S
C1449      C1584   1.770       .  S
C1449      C1698   1.630       .  S
C1449      C1797   1.625       .  S
C1449      C1813   1.611       .  S
C1450      C1517   1.771       .  S
C1450      C1682   1.680       .  S
C1450      C1717   1.623       .  S
C1450      C1733   1.646       .  S
Zr1451     O1452   2.443       .  S
Zr1451     O1453   2.481       .  S
Zr1451     O1454   2.493       .  S
Zr1451     O1457   2.461       .  S
Zr1451     O1459   2.400       .  S
Zr1451     O1460   2.394       .  S
Zr1451     O1461   2.418       .  S
Zr1451     O1462   2.419       .  S
O1452      H1508   0.990       .  S
O1452      H1516   0.990       .  S
O1453      C1473   1.292       .  A
O1454      C1475   1.294       .  A
O1455     Zr1465   2.424       .  S
O1455      C1474   1.284       .  A
O1456     Zr1464   2.402       .  S
O1456      C1475   1.279       .  A
O1457      C1474   1.288       .  A
O1458     Zr1466   2.436       .  S
O1458      C1473   1.284       .  A
O1459     Zr1464   2.412       .  S
O1459     Zr1466   2.381       .  S
O1460     Zr1465   2.385       .  S
O1460     Zr1466   2.378       .  S
O1460      H1495   0.965       .  S
O1461     Zr1464   2.411       .  S
O1461     Zr1481   2.380       .  S
O1461      H1498   0.964       .  S
O1462     Zr1465   2.388       .  S
O1462     Zr1481   2.390       .  S
Zr1463     O1488   2.441       .  S
Zr1463     O1482   2.433       .  S
Zr1463     O1490   2.457       .  S
Zr1463     O1478   2.449       .  S
Zr1463     O1469   2.400       .  S
Zr1463     O1470   2.408       .  S
Zr1463     O1471   2.369       .  S
Zr1463     O1472   2.391       .  S
Zr1464     O1483   2.433       .  S
Zr1464     O1476   2.437       .  S
Zr1464     O1477   2.453       .  S
Zr1464     O1470   2.389       .  S
Zr1464     O1471   2.379       .  S
Zr1465     O1467   2.437       .  S
Zr1465     O1489   2.440       .  S
Zr1465     O1491   2.430       .  S
Zr1465     O1469   2.386       .  S
Zr1465     O1472   2.385       .  S
Zr1466     O1492   2.435       .  S
Zr1466     O1493   2.436       .  S
Zr1466     O1468   2.437       .  S
Zr1466     O1469   2.394       .  S
Zr1466     O1470   2.407       .  S
O1467      H1504   0.990   1_455  S
O1468      H1499   0.990       .  S
O1468      H1513   0.990       .  S
O1470      H1496   0.966       .  S
O1471     Zr1481   2.376       .  S
O1472     Zr1481   2.385       .  S
O1472      H1497   0.966       .  S
C1473      C1650   1.496       .  S
C1474      C1922   1.497       .  S
C1475      C1634   1.484       .  S
O1476      H1512   0.990       .  S
O1477      C1479   1.284       .  A
O1478      C1479   1.289       .  A
O1480     Zr1481   2.437   1_655  S
O1480      H1509   0.990   1_655  S
Zr1481     O1484   2.437       .  S
Zr1481     O1485   2.440   1_455  S
Zr1481     O1486   2.409       .  S
O1482      C1487   1.285       .  A
O1483      H1500   0.990       .  S
O1483      H1515   0.990       .  S
O1484      H1501   0.990       .  S
O1485      H1505   0.990       .  S
O1485      H1514   0.989       .  S
O1486      C1487   1.279       .  A
O1488      H1507   0.990       .  S
O1488      H1511   0.990       .  S
O1489      H1503   0.990       .  S
O1489      H1510   0.990       .  S
O1490      C1494   1.288       .  A
O1491      C1494   1.284       .  A
O1492      H1502   0.990       .  S
O1493      H1506   0.990       .  S
C1494      C1685   1.485   1_554  S
C1517      C1602   1.652       .  S
C1517      C1618   1.626       .  S
C1517      C1637   1.637       .  S
Zr1518     O1519   2.441       .  S
Zr1518     O1520   2.422       .  S
Zr1518     O1521   2.424       .  S
Zr1518     O1524   2.442       .  S
Zr1518     O1526   2.396       .  S
Zr1518     O1527   2.375       .  S
Zr1518     O1528   2.408       .  S
Zr1518     O1529   2.396       .  S
O1519      H1575   0.990       .  S
O1519      H1583   0.990       .  S
O1520      C1540   1.280       .  A
O1521      C1542   1.281       .  A
O1522     Zr1532   2.404       .  S
O1522      C1541   1.277       .  A
O1523     Zr1531   2.434       .  S
O1523      C1542   1.286       .  A
O1524      C1541   1.286       .  A
O1525     Zr1533   2.431       .  S
O1525      C1540   1.284       .  A
O1526     Zr1531   2.400       .  S
O1526     Zr1533   2.372       .  S
O1527     Zr1532   2.379       .  S
O1527     Zr1533   2.366       .  S
O1527      H1562   0.966       .  S
O1528     Zr1531   2.407       .  S
O1528     Zr1548   2.375       .  S
O1528      H1565   0.961       .  S
O1529     Zr1532   2.385       .  S
O1529     Zr1548   2.384       .  S
Zr1530     O1555   2.442       .  S
Zr1530     O1557   2.460       .  S
Zr1530     O1536   2.406       .  S
Zr1530     O1537   2.422       .  S
Zr1530     O1538   2.377       .  S
Zr1530     O1539   2.381       .  S
Zr1531     O1550   2.437       .  S
Zr1531     O1543   2.435       .  S
Zr1531     O1544   2.446       .  S
Zr1531     O1537   2.395       .  S
Zr1531     O1538   2.397       .  S
Zr1532     O1534   2.438       .  S
Zr1532     O1556   2.436       .  S
Zr1532     O1558   2.416       .  S
Zr1532     O1536   2.383       .  S
Zr1532     O1539   2.397       .  S
Zr1533     O1559   2.434       .  S
Zr1533     O1560   2.435       .  S
Zr1533     O1535   2.435       .  S
Zr1533     O1536   2.398       .  S
Zr1533     O1537   2.396       .  S
O1534      H1571   0.990       .  S
O1535      H1566   0.990       .  S
O1535      H1580   0.989       .  S
O1537      H1563   0.965       .  S
O1538     Zr1548   2.382       .  S
O1539     Zr1548   2.385       .  S
O1539      H1564   0.966       .  S
C1540      C1605   1.470       .  S
C1541      C1893   1.494       .  S
C1542      C2245   1.462       .  S
O1543      H1579   0.990       .  S
O1545      C1546   1.286       .  A
C1546      C1621   1.495       .  S
O1547     Zr1548   2.436       .  S
O1547      H1576   0.990       .  S
Zr1548     O1551   2.437       .  S
Zr1548     O1552   2.434       .  S
Zr1548     O1553   2.403       .  S
O1549      C1554   1.291       .  A
O1550      H1567   0.990       .  S
O1550      H1582   0.989       .  S
O1551      H1568   0.990       .  S
O1552      H1572   0.990       .  S
O1552      H1581   0.990       .  S
C1554      C1877   1.484       .  S
O1555      H1574   0.990       .  S
O1555      H1578   0.990   1_565  S
O1556      H1570   0.987       .  S
O1556      H1577   0.989       .  S
O1557      C1561   1.290       .  A
O1558      C1561   1.279       .  A
O1559      H1569   0.990       .  S
O1560      H1573   0.990       .  S
C1561      C1701   1.499       .  S
C1584      C1586   1.615       .  S
C1584      C1653   1.634       .  S
C1584      C1669   1.636       .  S
C1585      C1586   1.409       .  A
C1585      C1590   1.399       .  A
C1585      H1592   1.032       .  S
C1586      C1587   1.467       .  A
C1587      C1594   1.525       .  S
C1587      C1588   1.416       .  A
C1588      C1589   1.389       .  A
C1588      H1593   1.085       .  S
C1589      C2198   1.461   1_554  S
C1589      C1590   1.398       .  A
C1590      C1591   1.524       .  S
C1591      F1595   1.378       .  S
C1591      F2252   1.376       .  S
C1591      F1597   1.383       .  S
C1594      F1598   1.381       .  S
C1594      F1599   1.376       .  S
C1594      F1600   1.383       .  S
F1596      C2247   1.377       .  S
C1601      C1602   1.434       .  A
C1601      C1606   1.398       .  A
C1601      H1608   1.048       .  S
C1602      C1603   1.477       .  A
C1603      C1610   1.532       .  S
C1603      C1604   1.421       .  A
C1604      C1605   1.385       .  A
C1604      H1609   1.083       .  S
C1605      C1606   1.385       .  A
C1606      C1607   1.520       .  S
C1607      F1611   1.385       .  S
C1607      F1612   1.379       .  S
C1607      F1613   1.384       .  S
C1610      F1614   1.386       .  S
C1610      F1615   1.363       .  S
C1610      F1616   1.372       .  S
C1617      C1618   1.427       .  A
C1617      C1622   1.411       .  A
C1617      H1624   1.040       .  S
C1618      C1619   1.474       .  A
C1619      C1626   1.546       .  S
C1619      C1620   1.411       .  A
C1620      C1621   1.389       .  A
C1620      H1625   1.086       .  S
C1621      C1622   1.402       .  A
C1622      C1623   1.520       .  S
C1623      F1627   1.384       .  S
C1623      F1628   1.382       .  S
C1623      F1629   1.383       .  S
C1626      F1630   1.362       .  S
C1626      F1631   1.384       .  S
C1626      F1632   1.387       .  S
C1633      C1634   1.393       .  A
C1633      C1638   1.420       .  A
C1633      H1640   1.087       .  S
C1634      C1635   1.393       .  A
C1635      C1642   1.520       .  S
C1635      C1636   1.412       .  A
C1636      C1637   1.442       .  A
C1636      H1641   1.058       .  S
C1637      C1638   1.466       .  A
C1638      C1639   1.536       .  S
C1639      F1643   1.381       .  S
C1639      F1644   1.362       .  S
C1639      F1645   1.379       .  S
C1642      F1646   1.384       .  S
C1642      F1647   1.383       .  S
C1642      F1648   1.384       .  S
C1649      C1650   1.396       .  A
C1649      C1654   1.426       .  A
C1649      H1656   1.083       .  S
C1650      C1651   1.399       .  A
C1651      C1658   1.513       .  S
C1651      C1652   1.421       .  A
C1652      C1653   1.425       .  A
C1652      H1657   1.063       .  S
C1653      C1654   1.454       .  A
C1654      C1655   1.529       .  S
C1655      F1659   1.379       .  S
C1655      F1660   1.380       .  S
C1655      F1661   1.367       .  S
C1658      F1662   1.382       .  S
C1658      F1663   1.384       .  S
C1658      F1664   1.382       .  S
C1665      C1666   1.390   1_565  A
C1665      C1670   1.410       .  A
C1665      H1672   1.079   1_565  S
C1667      C1674   1.518       .  S
C1668      C1669   1.435       .  A
C1668      H1673   1.069       .  S
C1669      C1670   1.473       .  A
C1670      C1671   1.537       .  S
C1671      F1675   1.375       .  S
C1671      F1676   1.389   1_565  S
C1671      F1677   1.372       .  S
C1674      F1678   1.383       .  S
C1674      F1679   1.382       .  S
C1674      F1680   1.385       .  S
C1681      C1682   1.433       .  A
C1681      C2342   1.409       .  A
C1681      H1688   1.038       .  S
C1682      C1683   1.481       .  A
C1683      C1690   1.523       .  S
C1683      C2340   1.418       .  A
C1684      C2339   1.420       .  A
C1684      C1685   1.383       .  A
C1684      H1689   1.085       .  S
C1685      C1686   1.395       .  A
C1686      C1687   1.526       .  S
C1686      C2337   1.409       .  A
C1687      F2347   1.385       .  S
C1687      F1692   1.383   1_556  S
C1687      F1693   1.382   1_556  S
C1690      F1694   1.349       .  S
C1690      F1695   1.387   1_455  S
C1690      F1696   1.380       .  S
F1691      C2343   1.385       .  S
C1697      C1698   1.428       .  A
C1697      C1702   1.404       .  A
C1697      H1704   1.070       .  S
C1698      C1699   1.461       .  A
C1699      C1706   1.541       .  S
C1699      C1700   1.410       .  A
C1700      C1701   1.399       .  A
C1700      H1705   1.086       .  S
C1701      C1702   1.419       .  A
C1702      C1703   1.521       .  S
C1703      F1707   1.385       .  S
C1703      F1708   1.381       .  S
C1703      F1709   1.382       .  S
C1706      F1710   1.382       .  S
C1706      F1711   1.370       .  S
C1713      C1714   1.396       .  A
C1713      C1718   1.433       .  A
C1713      H1720   1.082   1_455  S
C1714      C1715   1.407       .  A
C1715      C1716   1.406       .  A
C1716      C1717   1.432       .  A
C1716      H1721   1.066       .  S
C1717      C1718   1.474       .  A
C1718      C1719   1.542       .  S
C1719      F1723   1.385   1_455  S
C1719      F1724   1.366       .  S
C1719      F1725   1.372       .  S
C1722      F1726   1.383   1_545  S
C1722      F1727   1.381       .  S
C1722      F1728   1.383       .  S
C1729      C1730   1.403       .  A
C1729      C1734   1.411       .  A
C1729      H1736   1.086       .  S
C1730      C1731   1.417       .  A
C1731      C1738   1.522       .  S
C1731      C1732   1.414       .  A
C1732      C1733   1.439       .  A
C1732      H1737   1.072       .  S
C1733      C1734   1.457       .  A
C1734      C1735   1.558       .  S
C1735      F1739   1.389       .  S
C1735      F1740   1.348       .  S
C1735      F1741   1.386       .  S
C1738      F1742   1.383   1_455  S
C1738      F1743   1.384       .  S
C1738      F1744   1.385       .  S
C1745      C1746   1.428       .  A
C1745      C1750   1.405       .  A
C1745      H1752   1.063       .  S
C1746      C1747   1.455       .  A
C1747      C1754   1.540       .  S
C1747      C1748   1.420       .  A
C1748      C1749   1.406       .  A
C1748      H1753   1.084       .  S
C1749      C1750   1.416       .  A
C1750      C1751   1.526       .  S
C1751      F1755   1.385       .  S
C1751      F1756   1.383       .  S
C1751      F1757   1.383       .  S
C1754      F1758   1.376       .  S
C1754      F1759   1.389       .  S
C1754      F1760   1.375       .  S
C1761      C1762   1.423       .  A
C1761      C1766   1.422       .  A
C1761      H1768   1.056       .  S
C1762      C1763   1.445       .  A
C1763      C1770   1.535       .  S
C1763      C1764   1.388       .  A
C1764      C1765   1.393       .  A
C1764      H1769   1.081       .  S
C1765      C1766   1.414       .  A
C1767      F1771   1.385       .  S
C1767      F1772   1.384       .  S
C1767      F1773   1.381       .  S
C1770      F1774   1.380       .  S
C1770      F1775   1.364       .  S
C1770      F1776   1.387       .  S
C1777      C1778   1.410       .  A
C1777      C1782   1.390       .  A
C1777      H1784   1.073       .  S
C1778      C1779   1.463       .  A
C1779      C1786   1.532       .  S
C1779      C1780   1.414       .  A
C1780      C1781   1.393       .  A
C1780      H1785   1.086       .  S
C1781      C1782   1.403       .  A
C1782      C1783   1.522       .  S
C1783      F1787   1.384       .  S
C1783      F1788   1.380       .  S
C1783      F1789   1.372       .  S
C1786      F1790   1.382       .  S
C1786      F1791   1.368       .  S
C1786      F1792   1.384       .  S
C1793      C1798   1.409       .  A
C1793      H1800   1.085       .  S
C1794      C1795   1.399       .  A
C1795      C1802   1.522       .  S
C1795      C1796   1.401       .  A
C1796      H1801   1.063       .  S
C1797      C1798   1.487       .  A
C1798      C1799   1.541       .  S
C1799      F1803   1.388       .  S
C1799      F1804   1.355       .  S
C1799      F1805   1.377       .  S
C1802      F1806   1.384       .  S
C1802      F1807   1.380       .  S
C1802      F1808   1.381       .  S
C1809      C1810   1.409       .  A
C1809      C1814   1.408       .  A
C1809      H1816   1.085       .  S
C1810      C1811   1.422       .  A
C1811      C1818   1.519       .  S
C1811      C1812   1.409       .  A
C1812      C1813   1.429       .  A
C1812      H1817   1.075       .  S
C1813      C1814   1.444       .  A
C1814      C1815   1.551       .  S
C1815      F1819   1.386       .  S
C1815      F1820   1.363       .  S
C1815      F1821   1.385       .  S
C1818      F1822   1.383       .  S
C1818      F1823   1.383       .  S
C1818      F1824   1.385       .  S
C1825      C1826   1.427       .  A
C1825      C1830   1.424       .  A
C1825      H1832   1.070       .  S
C1826      C1827   1.477       .  A
C1827      C1834   1.551       .  S
C1827      C1828   1.403       .  A
C1828      C1829   1.394       .  A
C1828      H1833   1.085       .  S
C1829      C1995   1.510       .  S
C1829      C1830   1.413       .  A
C1830      C1831   1.515       .  S
C1831      F1835   1.384       .  S
C1831      F1836   1.381       .  S
C1831      F1837   1.382       .  S
C1834      F1838   1.361       .  S
C1834      F1839   1.389       .  S
C1834      F1840   1.383       .  S
C1841      C1846   1.405       .  A
C1841      H1848   1.039       .  S
C1842      C1843   1.466       .  A
C1843      C1850   1.540       .  S
C1843      C1844   1.427       .  A
C1844      H1849   1.083       .  S
C1845      C1846   1.418       .  A
C1846      C1847   1.533       .  S
C1847      F1851   1.376       .  S
C1847      F1852   1.383       .  S
C1847      F1853   1.383       .  S
C1850      F1854   1.368       .  S
C1850      F1855   1.386       .  S
C1850      F1856   1.379       .  S
C1857      C1858   1.400       .  A
C1857      C1862   1.424       .  A
C1857      H1864   1.085       .  S
C1858      C1859   1.403       .  A
C1859      C1866   1.521       .  S
C1859      C1860   1.402       .  A
C1860      C1861   1.421       .  A
C1860      H1865   1.053       .  S
C1861      C1862   1.455       .  A
C1862      C1863   1.520       .  S
C1863      F1867   1.383       .  S
C1863      F1868   1.383       .  S
C1863      F1869   1.369       .  S
C1866      F1870   1.383       .  S
C1866      F1871   1.380       .  S
C1866      F1872   1.383       .  S
C1873      C1874   1.425       .  A
C1873      C1878   1.414       .  A
C1873      H1880   1.060       .  S
C1874      C1875   1.463       .  A
C1875      C1882   1.545       .  S
C1875      C1876   1.412       .  A
C1876      C1877   1.388       .  A
C1876      H1881   1.085       .  S
C1877      C1878   1.402       .  A
C1878      C1879   1.520       .  S
C1879      F1883   1.384       .  S
C1879      F1884   1.384       .  S
C1879      F1885   1.383       .  S
C1882      F1886   1.385       .  S
C1882      F1887   1.363       .  S
C1882      F1888   1.383       .  S
C1889      C1890   1.435       .  A
C1889      C1894   1.394       .  A
C1889      H1896   1.069       .  S
C1890      C1891   1.464       .  A
C1891      C1898   1.531       .  S
C1891      C1892   1.423       .  A
C1892      C1893   1.400       .  A
C1892      H1897   1.082       .  S
C1893      C1894   1.410       .  A
C1894      C1895   1.530       .  S
C1895      F1899   1.385       .  S
C1895      F1900   1.383       .  S
C1895      F1901   1.382       .  S
C1898      F1902   1.369       .  S
C1898      F1903   1.367       .  S
C1898      F1904   1.386       .  S
C1905      C1906   1.390       .  A
C1905      C1910   1.416       .  A
C1905      H1912   1.083       .  S
C1906      C1907   1.394       .  A
C1907      C1914   1.521       .  S
C1907      C1908   1.409       .  A
C1908      C1909   1.428       .  A
C1908      H1913   1.038       .  S
C1909      C1910   1.473       .  A
C1910      C1911   1.541       .  S
C1911      F1915   1.386       .  S
C1911      F1916   1.371       .  S
C1911      F1917   1.376       .  S
C1914      F1918   1.382       .  S
C1914      F1919   1.384       .  S
C1914      F1920   1.382       .  S
C1921      C1922   1.399       .  A
C1921      C1926   1.393       .  A
C1921      H1928   1.085       .  S
C1922      C1923   1.423       .  A
C1923      C1930   1.514   1_455  S
C1923      C1924   1.428   1_455  A
C1924      C1925   1.423       .  A
C1924      H1929   1.063       .  S
C1925      C1926   1.437   1_655  A
C1926      C1927   1.529       .  S
C1927      F1931   1.386       .  S
C1927      F1932   1.371       .  S
C1927      F1933   1.382       .  S
C1930      F1934   1.383   1_655  S
C1930      F1935   1.382       .  S
C1930      F1936   1.384       .  S
C1937      C1938   1.424       .  A
C1937      C1942   1.405   1_655  A
C1937      H1944   1.072       .  S
C1938      C1939   1.471       .  A
C1939      C1946   1.537       .  S
C1939      C1940   1.401   1_655  A
C1940      C1941   1.384   1_565  A
C1941      C1942   1.406   1_545  A
C1942      C1943   1.520       .  S
C1943      F1947   1.385       .  S
C1943      F1948   1.378   1_565  S
C1943      F1949   1.384       .  S
C1946      F1950   1.367       .  S
C1946      F1951   1.380       .  S
C1946      F1952   1.381   1_565  S
C1953      C1954   1.433       .  A
C1953      C2614   1.406       .  A
C1953      H1960   1.060   1_655  S
C1954      C1955   1.432       .  A
C1955      C1962   1.521       .  S
C1955      C2612   1.422       .  A
C1956      C2611   1.420       .  A
C1956      C1957   1.406       .  A
C1956      H1961   1.083       .  S
C1957      C1958   1.404       .  A
C1958      C1959   1.524   1_655  S
C1958      C2609   1.406       .  A
C1959      F1963   1.383       .  S
C1959      F1964   1.379       .  S
C1959      F1965   1.384       .  S
C1962      F1966   1.380       .  S
C1962      F1967   1.372       .  S
C1962      F1968   1.386       .  S
C1969      C2104   1.778       .  S
C1969      C2581   1.628       .  S
C1969      C2594   1.602       .  S
C1969      C2610   1.631       .  S
C1970      C2037   1.768       .  S
C1970      C2530   1.609       .  S
C1970      C2546   1.652       .  S
C1970      C2565   1.628       .  S
Zr1971     O1972   2.438       .  S
Zr1971     O1973   2.489       .  S
Zr1971     O1974   2.481       .  S
Zr1971     O1977   2.432       .  S
Zr1971     O1979   2.391       .  S
Zr1971     O1980   2.383       .  S
Zr1971     O1981   2.422       .  S
Zr1971     O1982   2.418       .  S
O1972      H2028   0.989       .  S
O1972      H2036   0.989       .  S
O1973      C1993   1.292       .  A
O1974      C1995   1.289       .  A
O1975     Zr1985   2.388       .  S
O1975      C1994   1.275       .  A
O1976     Zr1984   2.401       .  S
O1976      C1995   1.281       .  A
O1977      C1994   1.284       .  A
O1978     Zr1986   2.385       .  S
O1978      C1993   1.271       .  A
O1979     Zr1984   2.402       .  S
O1979     Zr1986   2.381       .  S
O1980     Zr1985   2.374       .  S
O1980     Zr1986   2.377       .  S
O1980      H2015   0.964       .  S
O1981     Zr1984   2.395       .  S
O1981     Zr2001   2.404       .  S
O1981      H2018   0.966       .  S
O1982     Zr1985   2.382       .  S
O1982     Zr2001   2.395       .  S
Zr1983     O2008   2.439       .  S
Zr1983     O2002   2.422       .  S
Zr1983     O2010   2.481       .  S
Zr1983     O1998   2.488       .  S
Zr1983     O1989   2.386       .  S
Zr1983     O1990   2.402       .  S
Zr1983     O1991   2.389       .  S
Zr1983     O1992   2.390       .  S
Zr1984     O2003   2.437       .  S
Zr1984     O1996   2.434       .  S
Zr1984     O1997   2.416       .  S
Zr1984     O1990   2.400       .  S
Zr1984     O1991   2.386       .  S
Zr1985     O1987   2.436       .  S
Zr1985     O2009   2.443       .  S
Zr1985     O2011   2.364       .  S
Zr1985     O1989   2.381       .  S
Zr1985     O1992   2.382       .  S
Zr1986     O2012   2.436       .  S
Zr1986     O2013   2.436       .  S
Zr1986     O1988   2.438       .  S
Zr1986     O1989   2.372       .  S
Zr1986     O1990   2.370       .  S
O1987      H2024   0.990       .  S
O1988      H2019   0.989       .  S
O1988      H2033   0.990       .  S
O1990      H2016   0.963       .  S
O1991     Zr2001   2.376       .  S
O1992     Zr2001   2.379       .  S
O1992      H2017   0.966       .  S
C1993      C2501   1.502       .  S
C1994      C2450   1.460       .  S
O1996      H2032   0.990       .  S
O1997      C1999   1.280       .  A
O1998      C1999   1.296       .  A
C1999      C2514   1.490       .  S
O2000     Zr2001   2.440       .  S
O2000      H2029   0.991       .  S
Zr2001     O2004   2.435       .  S
Zr2001     O2005   2.440       .  S
Zr2001     O2006   2.423       .  S
O2002      C2007   1.279       .  A
O2003      H2020   0.990       .  S
O2003      H2035   0.990       .  S
O2004      H2021   0.990       .  S
O2005      H2025   0.990       .  S
O2005      H2034   0.990       .  S
O2006      C2007   1.284       .  A
C2007      C2466   1.492       .  S
O2008      H2027   0.989       .  S
O2008      H2031   0.989       .  S
O2009      H2023   0.990       .  S
O2009      H2030   0.990       .  S
O2010      C2014   1.292       .  A
O2011      C2014   1.272       .  A
O2012      H2022   0.990       .  S
O2013      H2026   0.991       .  S
C2014      C2562   1.471       .  S
C2037      C2418   1.613       .  S
C2037      C2434   1.594       .  S
C2037      C2482   1.620       .  S
Zr2038     O2039   2.441       .  S
Zr2038     O2040   2.466       .  S
Zr2038     O2041   2.465       .  S
Zr2038     O2044   2.471       .  S
Zr2038     O2046   2.392       .  S
Zr2038     O2047   2.391       .  S
Zr2038     O2048   2.425       .  S
Zr2038     O2049   2.414       .  S
O2039      H2095   0.991       .  S
O2039      H2103   0.990       .  S
O2040      C2060   1.286       .  A
O2041      C2062   1.289       .  A
O2042     Zr2052   2.426   1_455  S
O2042      C2061   1.282   1_565  A
O2043     Zr2051   2.438       .  S
O2043      C2062   1.285       .  A
O2044      C2061   1.292   1_665  A
O2045     Zr2053   2.412       .  S
O2045      C2060   1.274       .  A
O2046     Zr2051   2.397       .  S
O2046     Zr2053   2.377       .  S
O2047     Zr2052   2.401       .  S
O2047     Zr2053   2.381       .  S
O2047      H2082   0.966       .  S
O2048     Zr2051   2.404       .  S
O2048     Zr2068   2.396   1_655  S
O2048      H2085   0.966       .  S
O2049     Zr2052   2.393       .  S
O2049     Zr2068   2.407   1_655  S
Zr2050     O2075   2.443       .  S
Zr2050     O2069   2.408       .  S
Zr2050     O2077   2.440       .  S
Zr2050     O2065   2.398       .  S
Zr2050     O2056   2.387       .  S
Zr2050     O2057   2.401       .  S
Zr2050     O2058   2.382       .  S
Zr2050     O2059   2.375       .  S
Zr2051     O2070   2.438       .  S
Zr2051     O2063   2.435       .  S
Zr2051     O2064   2.454       .  S
Zr2051     O2057   2.397       .  S
Zr2051     O2058   2.382       .  S
Zr2052     O2054   2.434   1_655  S
Zr2052     O2076   2.438       .  S
Zr2052     O2078   2.437       .  S
Zr2052     O2056   2.391       .  S
Zr2052     O2059   2.390       .  S
Zr2053     O2079   2.434       .  S
Zr2053     O2080   2.438       .  S
Zr2053     O2055   2.428       .  S
Zr2053     O2056   2.388       .  S
Zr2053     O2057   2.374       .  S
O2054      H2091   0.989       .  S
O2055      H2086   0.989       .  S
O2055      H2100   0.990       .  S
O2057      H2083   0.964       .  S
O2058     Zr2068   2.362   1_655  S
O2059     Zr2068   2.384   1_655  S
O2059      H2084   0.966   1_655  S
C2062      C2405   1.507       .  S
O2063      H2099   0.990       .  S
O2064      C2066   1.288       .  A
O2065      C2066   1.279       .  A
C2066      C2437   1.468       .  S
O2067     Zr2068   2.434       .  S
O2067      H2096   0.990       .  S
Zr2068     O2071   2.438       .  S
Zr2068     O2072   2.440       .  S
Zr2068     O2073   2.435       .  S
O2069      C2074   1.277   1_655  A
O2070      H2087   0.990       .  S
O2070      H2102   0.990       .  S
O2071      H2088   0.990       .  S
O2072      H2092   0.990       .  S
O2072      H2101   0.990       .  S
O2073      C2074   1.285       .  A
C2074      C2386   1.482       .  S
O2075      H2094   0.991       .  S
O2075      H2098   0.991       .  S
O2076      H2090   0.990       .  S
O2076      H2097   0.990       .  S
O2077      C2081   1.281       .  A
O2078      C2081   1.285       .  A
O2079      H2089   0.990       .  S
O2080      H2093   0.990       .  S
C2081      C2613   1.485       .  S
C2104      C2402   1.646       .  S
C2104      C2498   1.622       .  S
C2104      C2517   1.622       .  S
C2105      C2240   1.771       .  S
C2105      C2354   1.633       .  S
C2105      C2453   1.624       .  S
C2105      C2469   1.610       .  S
C2106      C2173   1.767       .  S
C2106      C2338   1.683       .  S
C2106      C2373   1.623       .  S
C2106      C2389   1.646       .  S
Zr2107     O2108   2.444       .  S
Zr2107     O2109   2.488       .  S
Zr2107     O2110   2.490       .  S
Zr2107     O2113   2.458       .  S
Zr2107     O2115   2.395       .  S
Zr2107     O2116   2.394       .  S
Zr2107     O2117   2.421       .  S
Zr2107     O2118   2.423       .  S
O2108      H2164   0.991       .  S
O2108      H2172   0.991       .  S
O2109      C2129   1.294       .  A
O2110      C2131   1.292       .  A
O2111     Zr2121   2.425       .  S
O2111      C2130   1.285       .  A
O2112     Zr2120   2.397       .  S
O2112      C2131   1.278       .  A
O2113      C2130   1.287       .  A
O2114     Zr2122   2.427       .  S
O2114      C2129   1.282       .  A
O2115     Zr2120   2.410       .  S
O2115     Zr2122   2.379       .  S
O2116     Zr2121   2.390       .  S
O2116     Zr2122   2.381       .  S
O2116      H2151   0.965       .  S
O2117     Zr2120   2.410       .  S
O2117     Zr2137   2.388       .  S
O2117      H2154   0.965       .  S
O2118     Zr2121   2.390       .  S
O2118     Zr2137   2.396       .  S
Zr2119     O2144   2.440       .  S
Zr2119     O2138   2.430       .  S
Zr2119     O2146   2.446       .  S
Zr2119     O2134   2.439       .  S
Zr2119     O2125   2.396       .  S
Zr2119     O2126   2.406       .  S
Zr2119     O2127   2.369       .  S
Zr2119     O2128   2.386       .  S
Zr2120     O2139   2.434       .  S
Zr2120     O2132   2.435       .  S
Zr2120     O2133   2.449       .  S
Zr2120     O2126   2.388       .  S
Zr2120     O2127   2.377       .  S
Zr2121     O2123   2.437   1_455  S
Zr2121     O2145   2.438       .  S
Zr2121     O2147   2.436       .  S
Zr2121     O2125   2.387       .  S
Zr2121     O2128   2.380       .  S
Zr2122     O2148   2.433       .  S
Zr2122     O2149   2.436       .  S
Zr2122     O2124   2.438       .  S
Zr2122     O2125   2.394       .  S
Zr2122     O2126   2.404       .  S
O2123      H2160   0.990       .  S
O2124      H2155   0.990       .  S
O2124      H2169   0.990       .  S
O2126      H2152   0.966       .  S
O2127     Zr2137   2.374       .  S
O2128     Zr2137   2.382       .  S
O2128      H2153   0.966       .  S
C2129      C2306   1.496       .  S
C2130      C2578   1.498       .  S
C2131      C2290   1.481       .  S
O2132      H2168   0.990       .  S
O2133      C2135   1.284       .  A
O2134      C2135   1.287       .  A
O2136     Zr2137   2.438   1_655  S
O2136      H2165   0.990       .  S
Zr2137     O2140   2.437       .  S
Zr2137     O2141   2.441   1_455  S
Zr2137     O2142   2.417       .  S
O2138      C2143   1.284       .  A
O2139      H2156   0.990       .  S
O2139      H2171   0.990       .  S
O2140      H2157   0.991       .  S
O2141      H2161   0.990       .  S
O2141      H2170   0.989       .  S
O2142      C2143   1.281       .  A
O2144      H2163   0.990       .  S
O2144      H2167   0.990       .  S
O2145      H2159   0.990       .  S
O2145      H2166   0.990       .  S
O2146      C2150   1.286       .  A
O2147      C2150   1.285       .  A
O2148      H2158   0.990       .  S
O2149      H2162   0.990       .  S
C2150      C2341   1.483       .  S
C2173      C2258   1.652       .  S
C2173      C2274   1.624       .  S
C2173      C2293   1.632       .  S
Zr2174     O2175   2.443       .  S
Zr2174     O2176   2.418       .  S
Zr2174     O2177   2.430       .  S
Zr2174     O2180   2.434       .  S
Zr2174     O2182   2.390       .  S
Zr2174     O2183   2.377       .  S
Zr2174     O2184   2.402       .  S
Zr2174     O2185   2.397       .  S
O2175      H2231   0.991       .  S
O2175      H2239   0.990       .  S
O2176      C2196   1.279       .  A
O2177      C2198   1.281       .  A
O2178     Zr2188   2.405       .  S
O2178      C2197   1.278       .  A
O2179     Zr2187   2.419       .  S
O2179      C2198   1.283       .  A
O2180      C2197   1.285       .  A
O2181     Zr2189   2.425       .  S
O2181      C2196   1.283       .  A
O2182     Zr2187   2.397       .  S
O2182     Zr2189   2.371       .  S
O2183     Zr2188   2.379       .  S
O2183     Zr2189   2.363       .  S
O2183      H2218   0.966       .  S
O2184     Zr2187   2.411       .  S
O2184     Zr2204   2.379       .  S
O2184      H2221   0.962       .  S
O2185     Zr2188   2.393       .  S
O2185     Zr2204   2.383       .  S
Zr2186     O2211   2.440       .  S
Zr2186     O2213   2.454       .  S
Zr2186     O2192   2.401       .  S
Zr2186     O2193   2.414       .  S
Zr2186     O2194   2.378       .  S
Zr2186     O2195   2.379       .  S
Zr2187     O2206   2.437       .  S
Zr2187     O2199   2.433       .  S
Zr2187     O2200   2.441       .  S
Zr2187     O2193   2.395       .  S
Zr2187     O2194   2.396       .  S
Zr2188     O2190   2.436       .  S
Zr2188     O2212   2.436       .  S
Zr2188     O2214   2.425       .  S
Zr2188     O2192   2.380       .  S
Zr2188     O2195   2.395       .  S
Zr2189     O2215   2.434       .  S
Zr2189     O2216   2.434       .  S
Zr2189     O2191   2.436       .  S
Zr2189     O2192   2.392       .  S
Zr2189     O2193   2.391       .  S
O2190      H2227   0.990       .  S
O2191      H2222   0.990       .  S
O2191      H2236   0.989       .  S
O2193      H2219   0.965       .  S
O2194     Zr2204   2.383       .  S
O2195     Zr2204   2.385       .  S
O2195      H2220   0.966       .  S
C2196      C2261   1.466       .  S
C2197      C2549   1.488       .  S
O2199      H2235   0.990       .  S
O2201      C2202   1.281       .  A
C2202      C2277   1.497       .  S
O2203     Zr2204   2.436       .  S
O2203      H2232   0.990       .  S
Zr2204     O2207   2.437       .  S
Zr2204     O2208   2.427       .  S
Zr2204     O2209   2.397       .  S
O2205      C2210   1.290       .  A
O2206      H2223   0.990       .  S
O2206      H2238   0.989       .  S
O2207      H2224   0.990       .  S
O2208      H2228   0.990       .  S
O2208      H2237   0.990       .  S
C2210      C2533   1.480       .  S
O2211      H2230   0.990       .  S
O2211      H2234   0.990   1_565  S
O2212      H2226   0.988       .  S
O2212      H2233   0.988       .  S
O2213      C2217   1.289       .  A
O2214      C2217   1.281       .  A
O2215      H2225   0.990       .  S
O2216      H2229   0.990       .  S
C2217      C2357   1.502       .  S
C2240      C2242   1.614       .  S
C2240      C2309   1.635       .  S
C2240      C2325   1.636       .  S
C2241      C2242   1.406       .  A
C2241      C2246   1.397       .  A
C2241      H2248   1.032       .  S
C2242      C2243   1.468       .  A
C2243      C2250   1.528       .  S
C2243      C2244   1.416       .  A
C2244      C2245   1.390       .  A
C2244      H2249   1.085       .  S
C2245      C2246   1.398       .  A
C2246      C2247   1.523       .  S
C2247      F2251   1.381       .  S
C2247      F2253   1.382       .  S
C2250      F2254   1.381       .  S
C2250      F2255   1.376       .  S
C2250      F2256   1.383       .  S
C2257      C2258   1.436       .  A
C2257      C2262   1.398       .  A
C2257      H2264   1.046       .  S
C2258      C2259   1.476       .  A
C2259      C2266   1.531       .  S
C2259      C2260   1.419       .  A
C2260      C2261   1.384       .  A
C2260      H2265   1.083       .  S
C2261      C2262   1.384       .  A
C2262      C2263   1.524       .  S
C2263      F2267   1.385       .  S
C2263      F2268   1.381       .  S
C2263      F2269   1.383       .  S
C2266      F2270   1.386       .  S
C2266      F2271   1.364       .  S
C2266      F2272   1.371       .  S
C2273      C2274   1.424       .  A
C2273      C2278   1.409       .  A
C2273      H2280   1.034       .  S
C2274      C2275   1.475       .  A
C2275      C2282   1.549       .  S
C2275      C2276   1.412       .  A
C2276      C2277   1.393       .  A
C2276      H2281   1.085       .  S
C2277      C2278   1.401       .  A
C2278      C2279   1.521       .  S
C2279      F2283   1.384       .  S
C2279      F2284   1.383       .  S
C2279      F2285   1.383       .  S
C2282      F2286   1.363       .  S
C2282      F2287   1.383       .  S
C2282      F2288   1.387       .  S
C2289      C2290   1.391       .  A
C2289      C2294   1.417       .  A
C2289      H2296   1.088       .  S
C2290      C2291   1.393       .  A
C2291      C2298   1.521       .  S
C2291      C2292   1.412       .  A
C2292      C2293   1.441       .  A
C2292      H2297   1.060       .  S
C2293      C2294   1.469       .  A
C2294      C2295   1.537       .  S
C2295      F2299   1.381       .  S
C2295      F2300   1.362       .  S
C2295      F2301   1.378       .  S
C2298      F2302   1.384       .  S
C2298      F2303   1.383       .  S
C2298      F2304   1.384       .  S
C2305      C2306   1.396       .  A
C2305      C2310   1.426       .  A
C2305      H2312   1.083       .  S
C2306      C2307   1.399       .  A
C2307      C2314   1.513       .  S
C2307      C2308   1.422       .  A
C2308      C2309   1.424       .  A
C2308      H2313   1.062       .  S
C2309      C2310   1.454       .  A
C2310      C2311   1.527       .  S
C2311      F2315   1.380       .  S
C2311      F2316   1.380       .  S
C2311      F2317   1.367       .  S
C2314      F2318   1.383       .  S
C2314      F2319   1.383       .  S
C2314      F2320   1.381       .  S
C2321      C2322   1.390   1_565  A
C2321      C2326   1.411       .  A
C2321      H2328   1.080   1_565  S
C2323      C2330   1.517       .  S
C2324      C2325   1.434       .  A
C2324      H2329   1.069       .  S
C2325      C2326   1.476       .  A
C2326      C2327   1.539       .  S
C2327      F2331   1.374       .  S
C2327      F2332   1.389   1_565  S
C2327      F2333   1.373       .  S
C2330      F2334   1.383       .  S
C2330      F2335   1.382       .  S
C2330      F2336   1.385       .  S
C2337      C2338   1.437       .  A
C2337      H2344   1.041       .  S
C2338      C2339   1.482       .  A
C2339      C2346   1.528       .  S
C2340      C2341   1.380       .  A
C2340      H2345   1.086       .  S
C2341      C2342   1.394       .  A
C2342      C2343   1.524       .  S
C2343      F2348   1.383       .  S
C2343      F2349   1.381       .  S
C2346      F2350   1.354       .  S
C2346      F2351   1.387   1_455  S
C2346      F2352   1.378       .  S
C2353      C2354   1.426       .  A
C2353      C2358   1.403       .  A
C2353      H2360   1.070       .  S
C2354      C2355   1.464       .  A
C2355      C2362   1.542       .  S
C2355      C2356   1.411       .  A
C2356      C2357   1.399       .  A
C2356      H2361   1.085       .  S
C2357      C2358   1.418       .  A
C2358      C2359   1.519       .  S
C2359      F2363   1.385       .  S
C2359      F2364   1.380       .  S
C2359      F2365   1.381       .  S
C2362      F2366   1.382       .  S
C2362      F2367   1.369       .  S
C2369      C2370   1.399       .  A
C2369      C2374   1.437       .  A
C2369      H2376   1.082   1_455  S
C2370      C2371   1.408       .  A
C2371      C2372   1.406       .  A
C2372      C2373   1.429       .  A
C2372      H2377   1.065       .  S
C2373      C2374   1.472       .  A
C2374      C2375   1.539       .  S
C2375      F2379   1.385   1_455  S
C2375      F2380   1.365       .  S
C2375      F2381   1.372       .  S
C2378      F2382   1.383   1_545  S
C2378      F2383   1.382   1_545  S
C2378      F2384   1.382       .  S
C2385      C2386   1.404       .  A
C2385      C2390   1.409       .  A
C2385      H2392   1.086       .  S
C2386      C2387   1.418       .  A
C2387      C2394   1.523       .  S
C2387      C2388   1.411       .  A
C2388      C2389   1.436       .  A
C2388      H2393   1.071       .  S
C2389      C2390   1.459       .  A
C2390      C2391   1.565       .  S
C2391      F2395   1.389       .  S
C2391      F2396   1.352       .  S
C2391      F2397   1.387       .  S
C2394      F2398   1.383   1_455  S
C2394      F2399   1.384       .  S
C2394      F2400   1.385       .  S
C2401      C2402   1.426       .  A
C2401      C2406   1.405       .  A
C2401      H2408   1.063       .  S
C2402      C2403   1.457       .  A
C2403      C2410   1.542       .  S
C2403      C2404   1.422       .  A
C2404      C2405   1.407       .  A
C2404      H2409   1.085       .  S
C2405      C2406   1.415       .  A
C2406      C2407   1.524       .  S
C2407      F2411   1.385       .  S
C2407      F2412   1.383       .  S
C2407      F2413   1.383       .  S
C2410      F2414   1.377       .  S
C2410      F2415   1.389       .  S
C2410      F2416   1.377       .  S
C2417      C2418   1.427       .  A
C2417      C2422   1.426       .  A
C2417      H2424   1.057       .  S
C2418      C2419   1.453       .  A
C2419      C2426   1.538       .  S
C2419      C2420   1.389       .  A
C2420      C2421   1.391       .  A
C2420      H2425   1.083       .  S
C2421      C2422   1.412       .  A
C2423      F2427   1.385       .  S
C2423      F2428   1.384       .  S
C2423      F2429   1.381       .  S
C2426      F2430   1.381       .  S
C2426      F2431   1.360       .  S
C2426      F2432   1.387       .  S
C2433      C2434   1.415       .  A
C2433      C2438   1.396       .  A
C2433      H2440   1.075       .  S
C2434      C2435   1.462       .  A
C2435      C2442   1.532       .  S
C2435      C2436   1.416       .  A
C2436      C2437   1.393       .  A
C2436      H2441   1.086       .  S
C2437      C2438   1.402       .  A
C2438      C2439   1.525       .  S
C2439      F2443   1.383       .  S
C2439      F2444   1.382       .  S
C2439      F2445   1.372       .  S
C2442      F2446   1.381       .  S
C2442      F2447   1.370       .  S
C2442      F2448   1.384       .  S
C2449      C2454   1.410       .  A
C2449      H2456   1.085       .  S
C2450      C2451   1.395       .  A
C2451      C2458   1.521       .  S
C2451      C2452   1.397       .  A
C2452      H2457   1.060       .  S
C2453      C2454   1.487       .  A
C2454      C2455   1.539       .  S
C2455      F2459   1.388       .  S
C2455      F2460   1.355       .  S
C2455      F2461   1.379       .  S
C2458      F2462   1.383       .  S
C2458      F2463   1.379       .  S
C2458      F2464   1.380       .  S
C2465      C2466   1.408       .  A
C2465      C2470   1.407       .  A
C2465      H2472   1.085       .  S
C2466      C2467   1.422       .  A
C2467      C2474   1.521       .  S
C2467      C2468   1.409       .  A
C2468      C2469   1.429       .  A
C2468      H2473   1.075       .  S
C2469      C2470   1.442       .  A
C2470      C2471   1.550       .  S
C2471      F2475   1.386       .  S
C2471      F2476   1.364       .  S
C2471      F2477   1.385       .  S
C2474      F2478   1.383       .  S
C2474      F2479   1.384       .  S
C2474      F2480   1.385       .  S
C2481      C2482   1.429       .  A
C2481      C2486   1.425       .  A
C2481      H2488   1.070       .  S
C2482      C2483   1.477       .  A
C2483      C2490   1.552       .  S
C2483      C2484   1.402       .  A
C2484      C2485   1.394       .  A
C2484      H2489   1.084       .  S
C2485      C2486   1.411       .  A
C2486      C2487   1.516       .  S
C2487      F2491   1.384       .  S
C2487      F2492   1.383       .  S
C2487      F2493   1.381       .  S
C2490      F2494   1.361       .  S
C2490      F2495   1.390       .  S
C2490      F2496   1.382       .  S
C2497      C2502   1.403       .  A
C2497      H2504   1.032       .  S
C2498      C2499   1.465       .  A
C2499      C2506   1.540       .  S
C2499      C2500   1.427       .  A
C2500      H2505   1.083       .  S
C2501      C2502   1.414       .  A
C2502      C2503   1.533       .  S
C2503      F2507   1.378       .  S
C2503      F2508   1.383       .  S
C2503      F2509   1.383       .  S
C2506      F2510   1.366       .  S
C2506      F2511   1.385       .  S
C2506      F2512   1.379       .  S
C2513      C2514   1.400       .  A
C2513      C2518   1.426       .  A
C2513      H2520   1.085       .  S
C2514      C2515   1.401       .  A
C2515      C2522   1.520       .  S
C2515      C2516   1.401       .  A
C2516      C2517   1.421       .  A
C2516      H2521   1.052       .  S
C2517      C2518   1.460       .  A
C2518      C2519   1.521       .  S
C2519      F2523   1.383       .  S
C2519      F2524   1.385       .  S
C2519      F2525   1.368       .  S
C2522      F2526   1.383       .  S
C2522      F2527   1.379       .  S
C2522      F2528   1.381       .  S
C2529      C2530   1.423       .  A
C2529      C2534   1.411       .  A
C2529      H2536   1.057       .  S
C2530      C2531   1.463       .  A
C2531      C2538   1.546       .  S
C2531      C2532   1.413       .  A
C2532      C2533   1.389       .  A
C2532      H2537   1.085       .  S
C2533      C2534   1.401       .  A
C2534      C2535   1.521       .  S
C2535      F2539   1.384       .  S
C2535      F2540   1.383       .  S
C2535      F2541   1.383       .  S
C2538      F2542   1.383       .  S
C2538      F2543   1.363       .  S
C2538      F2544   1.385       .  S
C2545      C2546   1.436       .  A
C2545      C2550   1.392       .  A
C2545      H2552   1.069       .  S
C2546      C2547   1.467       .  A
C2547      C2554   1.532       .  S
C2547      C2548   1.421       .  A
C2548      C2549   1.398       .  A
C2548      H2553   1.082       .  S
C2549      C2550   1.407       .  A
C2550      C2551   1.529       .  S
C2551      F2555   1.385       .  S
C2551      F2556   1.384       .  S
C2551      F2557   1.382       .  S
C2554      F2558   1.367       .  S
C2554      F2559   1.368       .  S
C2554      F2560   1.386       .  S
C2561      C2562   1.384       .  A
C2561      C2566   1.410       .  A
C2561      H2568   1.083       .  S
C2562      C2563   1.393       .  A
C2563      C2570   1.520       .  S
C2563      C2564   1.409       .  A
C2564      C2565   1.429       .  A
C2564      H2569   1.041       .  S
C2565      C2566   1.476       .  A
C2566      C2567   1.542       .  S
C2567      F2571   1.386       .  S
C2567      F2572   1.371       .  S
C2567      F2573   1.377       .  S
C2570      F2574   1.382       .  S
C2570      F2575   1.384       .  S
C2570      F2576   1.382       .  S
C2577      C2578   1.399       .  A
C2577      C2582   1.391       .  A
C2577      H2584   1.085       .  S
C2578      C2579   1.425   1_455  A
C2579      C2586   1.516       .  S
C2579      C2580   1.431       .  A
C2580      C2581   1.424       .  A
C2580      H2585   1.064       .  S
C2581      C2582   1.435   1_655  A
C2582      C2583   1.526       .  S
C2583      F2587   1.386       .  S
C2583      F2588   1.372       .  S
C2583      F2589   1.383       .  S
C2586      F2590   1.382   1_655  S
C2586      F2591   1.382       .  S
C2586      F2592   1.384       .  S
C2593      C2594   1.426   1_455  A
C2593      C2598   1.411       .  A
C2593      H2600   1.073   1_455  S
C2594      C2595   1.472       .  A
C2595      C2602   1.537       .  S
C2595      C2596   1.403   1_655  A
C2596      C2597   1.385   1_565  A
C2597      C2598   1.407   1_545  A
C2598      C2599   1.520       .  S
C2599      F2603   1.385       .  S
C2599      F2604   1.381   1_565  S
C2599      F2605   1.384       .  S
C2602      F2606   1.367       .  S
C2602      F2607   1.378       .  S
C2602      F2608   1.381   1_565  S
C2609      C2610   1.432       .  A
C2609      H2616   1.062   1_655  S
C2610      C2611   1.436       .  A
C2611      C2618   1.523       .  S
C2612      C2613   1.407   1_554  A
C2612      H2617   1.083       .  S
C2613      C2614   1.404   1_556  A
C2614      C2615   1.523   1_654  S
C2615      F2619   1.382   1_556  S
C2615      F2620   1.380       .  S
C2615      F2621   1.384       .  S
C2618      F2622   1.382       .  S
C2618      F2623   1.368       .  S
C2618      F2624   1.386       .  S
