geometry optimzed in LAMMPS
_audit_creation_date              2020-11-30 
_audit_creation_method            'lammps2cif' 
_symmetry_space_group_name_H-M    'P1' 
_symmetry_Int_Tables_number       1 
_symmetry_cell_setting            triclinic 
loop_ 
_symmetry_equiv_pos_as_xyz 
  x,y,z 
_cell_length_a                    39.73591176 
_cell_length_b                    39.708065976039 
_cell_length_c                    85.45344566249798 
_cell_angle_alpha                 90.11885534903875 
_cell_angle_beta                  90.07656136952338 
_cell_angle_gamma                 90.24063245218551 
loop_ 
_atom_site_label 
_atom_site_type_symbol 
_atom_site_fract_x 
_atom_site_fract_y 
_atom_site_fract_z 
_atom_site_charge 
O1          O  0.23535767  0.67995618  0.80493127    -0.57400
C2          C  0.21211095  0.61425833  0.83238387     0.75300
O3          O  0.27660146  0.70703658  0.84048139    -0.58500
C4          C  0.23538828  0.71075972  0.80115075     0.75200
C5          C  0.15121488  0.71458981  0.83709851     0.77600
Cd6        Cd  0.21873986  0.68725959  0.83241686     1.37500
O7          O  0.23089642  0.62997653  0.82297694    -0.57400
O8          O  0.15912474  0.69530032  0.82595793    -0.56200
C9          C  0.27468270  0.69753102  0.85457995     0.77600
O10         O  0.17493070  0.72245992  0.84636611    -0.58500
O11         O  0.19610795  0.63246821  0.84196526    -0.57000
O12         O  0.22843464  0.73129252  0.81206628    -0.57000
O13         O  0.24624301  0.68624038  0.85861127    -0.56200
O14         O  0.33265134  0.76618164  0.68518154    -0.57400
C15         C  0.39602735  0.78091664  0.65515380     0.75300
O16         O  0.31630599  0.75045981  0.63140269    -0.58500
C17         C  0.30243086  0.76819666  0.68966615     0.75200
C18         C  0.30518387  0.85045491  0.65327596     0.77600
Cd19       Cd  0.32357126  0.77970418  0.65748909     1.37500
O20         O  0.38108834  0.76335634  0.66536847    -0.57400
O21         O  0.32999653  0.84025398  0.66116330    -0.56200
C22         C  0.30671732  0.72246489  0.63692768     0.77600
O23         O  0.28742525  0.82745181  0.64697528    -0.58500
O24         O  0.37736590  0.79643947  0.64562992    -0.57000
O25         O  0.28119814  0.77523184  0.67905960    -0.57000
O26         O  0.30178416  0.72225456  0.65151944    -0.56200
C27         C  0.55770654  0.66960133  0.91106114     0.86900
C28         C  0.55324709  0.67983540  0.92831199    -0.53300
C29         C  0.52648871  0.66493208  0.93565225     0.09900
C30         C  0.50502448  0.64260255  0.92468768     0.20800
C31         C  0.55706929  0.63062316  0.91090890    -0.54000
C32         C  0.52993850  0.61652062  0.91830833     0.10000
C33         C  0.52362526  0.67882185  0.90343545    -0.53600
C34         C  0.49621758  0.66474551  0.91051119     0.10500
H35         H  0.56999546  0.69755409  0.93406275     0.15100
H36         H  0.48273252  0.63097996  0.93039101     0.00800
H37         H  0.57643138  0.61549597  0.90538280     0.15400
H38         H  0.52045070  0.69349039  0.89289524     0.15100
C39         C  0.32541143  0.44589159  0.57374465     0.86900
C40         C  0.31304365  0.44901672  0.55670625    -0.53300
C41         C  0.32395373  0.47733199  0.54909819     0.09900
C42         C  0.34631042  0.50045362  0.55927279     0.20800
C43         C  0.36383920  0.44988085  0.57299858    -0.54000
C44         C  0.37482300  0.47775682  0.56528927     0.10000
C45         C  0.31407622  0.47946103  0.58143684    -0.53600
C46         C  0.32459842  0.50793947  0.57381929     0.10500
H47         H  0.29679296  0.43053334  0.55112111     0.15100
H48         H  0.35539737  0.52337773  0.55313259     0.00800
H49         H  0.38116753  0.43232425  0.57843243     0.15400
H50         H  0.30014331  0.48172977  0.59222127     0.15100
O51         O  0.19527238  0.34659112  0.81693257    -0.57400
C52         C  0.19901057  0.26265519  0.79458775     0.75300
O53         O  0.22133265  0.26915205  0.84988185    -0.58500
C54         C  0.19148387  0.36056018  0.83014472     0.75200
C55         C  0.11970629  0.27045564  0.83311915     0.77600
Cd56       Cd  0.18922229  0.28856640  0.82609788     1.37500
O57         O  0.19507441  0.29359657  0.79752453    -0.57400
O58         O  0.12843053  0.29807416  0.82700869    -0.56200
C59         C  0.24995822  0.27708766  0.84441412     0.77600
O60         O  0.14340889  0.25040130  0.83647759    -0.58500
O61         O  0.19852099  0.24317370  0.80632634    -0.57000
O62         O  0.18539653  0.34116064  0.84153536    -0.57000
O63         O  0.24999420  0.28669423  0.83035754    -0.56200
O64         O  0.36855910  0.18320591  0.67247772    -0.57400
C65         C  0.28312126  0.19287694  0.68824223     0.75300
O66         O  0.28590351  0.20965603  0.63849321    -0.58500
C67         C  0.38647976  0.17018222  0.66187895     0.75200
C68         C  0.29524867  0.10400350  0.65231070     0.77600
Cd69       Cd  0.31455880  0.17359185  0.65925771     1.37500
O70         O  0.31300006  0.18213309  0.68753245    -0.57400
O71         O  0.29239542  0.11693643  0.66576102    -0.56200
C72         C  0.30805557  0.23279823  0.63902768     0.77600
O73         O  0.30541181  0.12363705  0.64162878    -0.58500
O74         O  0.26664497  0.19334468  0.67551791    -0.57000
O75         O  0.37110306  0.15664801  0.65050274    -0.57000
O76         O  0.33156452  0.22784554  0.64862076    -0.56200
C77         C  0.45871591  0.31473170  0.91058529     0.86900
C78         C  0.46140898  0.30515604  0.92792881    -0.53300
C79         C  0.49000267  0.31627398  0.93539061     0.09900
C80         C  0.51332472  0.33711256  0.92450925     0.20800
C81         C  0.46272001  0.35330877  0.91034728    -0.54000
C82         C  0.49061034  0.36501827  0.91793685     0.10000
C83         C  0.49206302  0.30231092  0.90322316    -0.53600
C84         C  0.52046041  0.31443834  0.91029492     0.10500
H85         H  0.44101010  0.29238045  0.93393276     0.15100
H86         H  0.53663333  0.34689756  0.93007843     0.00800
H87         H  0.44471800  0.37009302  0.90486643     0.15400
H88         H  0.49404148  0.28800724  0.89247556     0.15100
O89         O  0.83341681  0.64091472  0.82080994    -0.57400
C90         C  0.82208903  0.71888871  0.80101784     0.75300
O91         O  0.79907764  0.71566301  0.85661391    -0.58500
C92         C  0.82848153  0.62437270  0.83322725     0.75200
C93         C  0.90146892  0.71231834  0.84174224     0.77600
Cd94       Cd  0.83201793  0.69664312  0.83287674     1.37500
O95         O  0.82764391  0.68861219  0.80465849    -0.57400
O96         O  0.88846833  0.68337634  0.84244831    -0.56200
C97         C  0.77068992  0.71154385  0.85005835     0.77600
O98         O  0.88147359  0.73560812  0.83776968    -0.58500
O99         O  0.82256511  0.73977724  0.81228017    -0.57000
O100        O  0.82514156  0.64151450  0.84564596    -0.57000
O101        O  0.77169998  0.70399126  0.83575008    -0.56200
O102        O  0.66477636  0.79929844  0.67281560    -0.57400
C103        C  0.74695631  0.78748108  0.69246148     0.75300
O104        O  0.73476146  0.77552986  0.63620315    -0.58500
C105        C  0.64887729  0.80068019  0.66002183     0.75200
C106        C  0.73758690  0.87488567  0.65751771     0.77600
Cd107      Cd  0.72113211  0.80363878  0.66171365     1.37500
O108        O  0.71632247  0.79285569  0.68953856    -0.57400
O109        O  0.71070689  0.86374398  0.66339011    -0.56200
C110        C  0.73152225  0.74573035  0.64131893     0.77600
O111        O  0.75797529  0.85265382  0.65266215    -0.58500
O112        O  0.76678620  0.79011336  0.68088200    -0.57000
O113        O  0.66664973  0.80393459  0.64781982    -0.57000
O114        O  0.72712412  0.74330150  0.65591929    -0.56200
C115        C  0.67441671  0.53256756  0.57994020     0.86900
C116        C  0.68662624  0.52910598  0.56290661    -0.53300
C117        C  0.67672410  0.50011208  0.55542259     0.09900
C118        C  0.65566414  0.47656747  0.56596334     0.20800
C119        C  0.63580310  0.52722810  0.57876070    -0.54000
C120        C  0.62577469  0.49848281  0.57116591     0.10000
C121        C  0.68611250  0.50046464  0.58828101    -0.53600
C122        C  0.67695191  0.47120445  0.58102824     0.10500
H123        H  0.70057504  0.54898261  0.55705190     0.15100
H124        H  0.64782519  0.45321881  0.55985252     0.00800
H125        H  0.61706528  0.54408740  0.58344069     0.15400
H126        H  0.70025704  0.50080310  0.59916806     0.15100
O127        O  0.79367537  0.30597410  0.80553098    -0.57400
C128        C  0.80718791  0.37132884  0.83518893     0.75300
O129        O  0.77265302  0.28788700  0.85928487    -0.58500
C130        C  0.78877296  0.27553190  0.80192403     0.75200
C131        C  0.86913990  0.27549419  0.83824812     0.77600
Cd132      Cd  0.80086495  0.29927066  0.83353388     1.37500
O133        O  0.79274371  0.35663052  0.82387299    -0.57400
O134        O  0.86165769  0.30172925  0.83072713    -0.56200
C135        C  0.74289372  0.29087905  0.85416878     0.77600
O136        O  0.84470180  0.25918087  0.84411699    -0.58500
O137        O  0.81793555  0.35250296  0.84599913    -0.57000
O138        O  0.78867132  0.25496477  0.81328819    -0.57000
O139        O  0.74005409  0.29472361  0.83955361    -0.56200
O140        O  0.70333816  0.21038892  0.68631670    -0.57400
C141        C  0.63924587  0.18329258  0.66100122     0.75300
O142        O  0.72648725  0.22606270  0.63425261    -0.58500
C143        C  0.73396024  0.20914646  0.69032945     0.75200
C144        C  0.73458298  0.12687163  0.65069341     0.77600
Cd145      Cd  0.71079411  0.19416468  0.65890461     1.37500
O146        O  0.65892947  0.17651769  0.67217842    -0.57400
O147        O  0.70551109  0.13746065  0.64733519    -0.56200
C148        C  0.71976922  0.25486019  0.63983716     0.77600
O149        O  0.75427216  0.14865416  0.65656617    -0.58500
O150        O  0.65299333  0.19469077  0.64873166    -0.57000
O151        O  0.75445989  0.20106730  0.67962013    -0.57000
O152        O  0.71114247  0.25517509  0.65402066    -0.56200
O153        O  0.62789503  0.17249497  0.32028318    -0.57400
C154        C  0.71264910  0.17957776  0.30026357     0.75300
O155        O  0.70102735  0.19083772  0.35653355    -0.58500
C156        C  0.61228248  0.16737988  0.33294235     0.75200
C157        C  0.69831819  0.09275446  0.33569391     0.77600
Cd158      Cd  0.68442821  0.16420232  0.33083694     1.37500
O159        O  0.68146885  0.17662665  0.30277448    -0.57400
O160        O  0.67244544  0.10376933  0.32884171    -0.56200
C161        C  0.69702072  0.22094745  0.35202514     0.77600
O162        O  0.71896254  0.11493534  0.34052659    -0.58500
O163        O  0.73148767  0.17504171  0.31207216    -0.57000
O164        O  0.63025013  0.15999536  0.34467761    -0.57000
O165        O  0.69022964  0.22433267  0.33766693    -0.56200
O166        O  0.79057244  0.30171022  0.19374696    -0.57400
C167        C  0.79366780  0.37249479  0.16325845     0.75300
O168        O  0.84607398  0.26667354  0.15444793    -0.58500
C169        C  0.78859328  0.27030041  0.19586645     0.75200
C170        C  0.73766868  0.28953835  0.14605543     0.77600
Cd171      Cd  0.79769691  0.30067609  0.16525602     1.37500
O172        O  0.78959224  0.35736772  0.17616308    -0.57400
O173        O  0.73708170  0.29953635  0.16006545    -0.56200
C174        C  0.86814099  0.28878125  0.15775621     0.77600
O175        O  0.76653131  0.28147250  0.14095951    -0.58500
O176        O  0.80124805  0.35441456  0.15158334    -0.57000
O177        O  0.79135839  0.25238170  0.18363651    -0.57000
O178        O  0.85720347  0.31519895  0.16420411    -0.56200
C179        C  0.52825501  0.32002402  0.07903376     0.86900
C180        C  0.52603951  0.30946488  0.06176919    -0.53300
C181        C  0.49727997  0.31923229  0.05415574     0.09900
C182        C  0.47313453  0.33959344  0.06475114     0.20800
C183        C  0.52284683  0.35840048  0.07899285    -0.54000
C184        C  0.49480263  0.36863016  0.07115415     0.10000
C185        C  0.49516712  0.30662548  0.08638980    -0.53600
C186        C  0.46645664  0.31742147  0.07918475     0.10500
H187        H  0.54640352  0.29642381  0.05592898     0.15100
H188        H  0.44972190  0.34819326  0.05892648     0.00800
H189        H  0.53933833  0.37615186  0.08492807     0.15400
H190        H  0.49351301  0.29282299  0.09726608     0.15100
O191        O  0.29991201  0.22134809  0.30447677    -0.57400
C192        C  0.36138986  0.18999150  0.33520313     0.75300
O193        O  0.27192576  0.23023689  0.35569056    -0.58500
C194        C  0.26982614  0.21965489  0.29975807     0.75200
C195        C  0.26722171  0.13156227  0.33518674     0.77600
Cd196      Cd  0.29067533  0.20051867  0.33105077     1.37500
O197        O  0.34726545  0.18790439  0.32198200    -0.57400
O198        O  0.29453291  0.13949646  0.32863176    -0.56200
C199        C  0.27938987  0.25954715  0.35088225     0.77600
O200        O  0.24959150  0.15584847  0.34025920    -0.58500
O201        O  0.34297179  0.19807774  0.34666896    -0.57000
O202        O  0.24859436  0.20939680  0.30976463    -0.57000
O203        O  0.29003773  0.26101083  0.33696259    -0.56200
O204        O  0.20697610  0.37057615  0.16767202    -0.57400
C205        C  0.20932200  0.28649548  0.18923442     0.75300
O206        O  0.13277005  0.30196010  0.16722701    -0.58500
C207        C  0.18374936  0.38542992  0.16024711     0.75200
C208        C  0.24408595  0.30209888  0.13575034     0.77600
Cd209      Cd  0.19069588  0.31318168  0.15897096     1.37500
O210        O  0.21253673  0.31738163  0.18585011    -0.57400
O211        O  0.22530414  0.32758915  0.13592298    -0.56200
C212        C  0.12113410  0.29236318  0.15419839     0.77600
O213        O  0.23697722  0.27986168  0.14584633    -0.58500
O214        O  0.19823344  0.26755211  0.17843601    -0.57000
O215        O  0.16386578  0.36655596  0.15269381    -0.57000
O216        O  0.14232204  0.29022585  0.14315885    -0.56200
C217        C  0.64583108  0.43238106  0.41447957     0.86900
C218        C  0.65574039  0.43630971  0.43185114    -0.53300
C219        C  0.64556200  0.46577187  0.43869363     0.09900
C220        C  0.62624208  0.48904678  0.42741966     0.20800
C221        C  0.60735148  0.43826039  0.41421683    -0.54000
C222        C  0.59698250  0.46701179  0.42145208     0.10000
C223        C  0.65932043  0.46421820  0.40635403    -0.53600
C224        C  0.64935904  0.49394612  0.41301766     0.10500
H225        H  0.66929644  0.41704147  0.43825634     0.15100
H226        H  0.61815574  0.51315094  0.43276100     0.00800
H227        H  0.58906430  0.42254834  0.40831111     0.15400
H228        H  0.67455170  0.46326716  0.39581894     0.15100
O229        O  0.65051476  0.75286428  0.30506693    -0.57400
C230        C  0.58391931  0.77760206  0.33121015     0.75300
O231        O  0.64261671  0.73682127  0.35589254    -0.58500
C232        C  0.68128664  0.75567991  0.30150423     0.75200
C233        C  0.68033257  0.84079211  0.33812946     0.77600
Cd234      Cd  0.65599490  0.77212797  0.33248236     1.37500
O235        O  0.60043660  0.76309406  0.32049418    -0.57400
O236        O  0.65770418  0.83304080  0.32838281    -0.56200
C237        C  0.66520908  0.71492036  0.35395062     0.77600
O238        O  0.69257740  0.81643690  0.34579653    -0.58500
O239        O  0.60079501  0.78992156  0.34244019    -0.57000
O240        O  0.70074620  0.76555744  0.31235377    -0.57000
O241        O  0.68498264  0.72060135  0.34267245    -0.56200
O242        O  0.75184081  0.68793681  0.18464028    -0.57400
C243        C  0.77098623  0.62457796  0.15765158     0.75300
O244        O  0.71325756  0.72125422  0.14621205    -0.58500
C245        C  0.74997103  0.71847853  0.18873177     0.75200
C246        C  0.83627667  0.71924885  0.15169156     0.77600
Cd247      Cd  0.76700083  0.69675996  0.15702579     1.37500
O248        O  0.74845034  0.64056025  0.16494658    -0.57400
O249        O  0.82747055  0.69787085  0.16178183    -0.56200
C250        C  0.71261572  0.70358650  0.13384609     0.77600
O251        O  0.81248268  0.73194611  0.14374619    -0.58500
O252        O  0.79159835  0.64229998  0.14992147    -0.57000
O253        O  0.75609248  0.73988314  0.17809071    -0.57000
O254        O  0.73841639  0.68578552  0.13163385    -0.56200
C255        C  0.43068598  0.67247507  0.07323186     0.86900
C256        C  0.43836327  0.68045177  0.05601584    -0.53300
C257        C  0.46751170  0.66654646  0.05056776     0.09900
C258        C  0.48660210  0.64567150  0.06281991     0.20800
C259        C  0.43200316  0.63373021  0.07440285    -0.54000
C260        C  0.46067330  0.61973838  0.06858894     0.10000
C261        C  0.46282314  0.68374231  0.08218293    -0.53600
C262        C  0.49193488  0.66968778  0.07675077     0.10500
H263        H  0.42152230  0.69488336  0.04861256     0.15100
H264        H  0.51017667  0.63417345  0.05836548     0.00800
H265        H  0.41175778  0.61848407  0.07919060     0.15400
H266        H  0.46315701  0.69998944  0.09237471     0.15100
O267        O  0.15030371  0.71375922  0.18008078    -0.57400
C268        C  0.16237082  0.63831020  0.15659276     0.75300
O269        O  0.10771752  0.74814245  0.14503839    -0.58500
C270        C  0.16144958  0.74350269  0.18163498     0.75200
C271        C  0.21589675  0.71909503  0.13211692     0.77600
Cd272      Cd  0.15616771  0.70983648  0.15164617     1.37500
O273        O  0.16940371  0.65923865  0.16729378    -0.57400
O274        O  0.21644990  0.71711145  0.14682545    -0.56200
C275        C  0.08702737  0.72449952  0.14222728     0.77600
O276        O  0.18677318  0.72002526  0.12606387    -0.58500
O277        O  0.15238527  0.65046598  0.14373234    -0.57000
O278        O  0.16907840  0.75850301  0.16904088    -0.57000
O279        O  0.09899754  0.69515607  0.14287374    -0.56200
O280        O  0.26263578  0.80407596  0.29394990    -0.57400
C281        C  0.33328177  0.80639436  0.32317118     0.75300
O282        O  0.22601672  0.85776165  0.33280319    -0.58500
C283        C  0.23122086  0.80277693  0.29164351     0.75200
C284        C  0.24832355  0.75147422  0.34280863     0.77600
Cd285      Cd  0.26123231  0.80974924  0.32257144     1.37500
O286        O  0.31642520  0.79458604  0.31183480    -0.57400
O287        O  0.25569275  0.74895323  0.32848677    -0.56200
C288        C  0.24824034  0.88009633  0.33019565     0.77600
O289        O  0.24428460  0.78131872  0.34768092    -0.58500
O290        O  0.31691771  0.81976413  0.33423249    -0.57000
O291        O  0.21312589  0.80504576  0.30379011    -0.57000
O292        O  0.27560791  0.86969628  0.32448822    -0.56200
C293        C  0.29744445  0.54397172  0.40769388     0.86900
C294        C  0.28437041  0.54101680  0.42452861    -0.53300
C295        C  0.29711583  0.51454988  0.43281827     0.09900
C296        C  0.32045449  0.49176222  0.42300816     0.20800
C297        C  0.33633748  0.54253107  0.40917418    -0.54000
C298        C  0.34827938  0.51571523  0.41735294     0.10000
C299        C  0.28901242  0.50980709  0.39999226    -0.53600
C300        C  0.30066969  0.48225743  0.40796949     0.10500
H301        H  0.26689967  0.55901603  0.42942505     0.15100
H302        H  0.32992046  0.46973598  0.42955140     0.00800
H303        H  0.35371707  0.55970880  0.40353748     0.15400
H304        H  0.27555846  0.50760127  0.38896737     0.15100
C305        C  0.24398323  0.69296514  0.37858332    -0.22000
C306        C  0.25282954  0.66206924  0.37178830     0.10000
C307        C  0.25669947  0.66005653  0.35542496     0.10400
C308        C  0.25321149  0.68926835  0.34630379    -0.16900
C309        C  0.24645090  0.72093157  0.35310322    -0.27300
C310        C  0.24094973  0.72245750  0.36952972     0.18700
C311        C  0.26260651  0.63341977  0.38207085     0.12700
C312        C  0.26595229  0.62727443  0.34766130    -0.11700
H313        H  0.25719894  0.68744640  0.33379186     0.12900
C314        C  0.23295938  0.75499284  0.37779933    -0.22500
H315        H  0.24107672  0.69428414  0.39118078     0.08600
C316        C  0.29453484  0.63280041  0.38918933     0.04900
C317        C  0.30428429  0.60452205  0.39784571    -0.19800
C318        C  0.28357560  0.57560295  0.39928716    -0.12000
C319        C  0.24991648  0.57815246  0.39352268     0.13600
C320        C  0.24042684  0.60640758  0.38454519    -0.22500
C321        C  0.31875841  0.66191771  0.38745087    -0.05600
H322        H  0.32818861  0.60599614  0.40377907     0.15200
C323        C  0.22272309  0.55255361  0.39687025    -0.15700
H324        H  0.21531941  0.60757623  0.37959554     0.09500
H325        H  0.25426498  0.77294521  0.37654236     0.07300
H326        H  0.22875355  0.75115348  0.39052090     0.08500
H327        H  0.20966987  0.76604287  0.37282868     0.07600
H328        H  0.24615362  0.60813174  0.34999029     0.02500
H329        H  0.29034890  0.61817777  0.35234856     0.02900
H330        H  0.26846719  0.63002737  0.33478441     0.06400
H331        H  0.34306129  0.65712961  0.39346530     0.05400
H332        H  0.30771432  0.68503563  0.39260302    -0.00300
H333        H  0.32412269  0.66627509  0.37486603     0.01100
H334        H  0.20062608  0.56550975  0.40202762     0.04800
H335        H  0.23020871  0.53304772  0.40536720     0.06700
H336        H  0.21481856  0.54014261  0.38579938     0.07600
C337        C  0.19175165  0.79861122  0.21579980    -0.22000
C338        C  0.18115614  0.77913991  0.22856511     0.10000
C339        C  0.16088474  0.75046533  0.22586585     0.10400
C340        C  0.15350925  0.74074547  0.21044105    -0.16900
C341        C  0.16612737  0.75869221  0.19750383    -0.27300
C342        C  0.18472092  0.78876302  0.20029444     0.18700
C343        C  0.19426271  0.78715777  0.24447718     0.12700
C344        C  0.14818828  0.72918305  0.23921626    -0.11700
H345        H  0.13867770  0.71814789  0.20852035     0.12900
C346        C  0.19834253  0.81010629  0.18716754    -0.22500
H347        H  0.20685250  0.82092452  0.21800339     0.08600
C348        C  0.22817097  0.78091187  0.24842282     0.04900
C349        C  0.23920440  0.78659355  0.26380545    -0.19800
C350        C  0.21724653  0.79813418  0.27554346    -0.12000
C351        C  0.18324462  0.80478814  0.27149348     0.13600
C352        C  0.17232506  0.79938086  0.25599095    -0.22500
C353        C  0.25265482  0.76737600  0.23651567    -0.05600
H354        H  0.26521661  0.78137935  0.26671332     0.15200
C355        C  0.15831591  0.81788801  0.28327136    -0.15700
H356        H  0.14638177  0.80431773  0.25284251     0.09500
H357        H  0.21628169  0.79525774  0.18001746     0.07300
H358        H  0.21205363  0.83261214  0.19161842     0.08500
H359        H  0.17731349  0.81913166  0.17973213     0.07600
H360        H  0.13144823  0.74433718  0.24682938     0.02500
H361        H  0.16974574  0.71978316  0.24621220     0.02900
H362        H  0.13353890  0.70706669  0.23499964     0.06400
H363        H  0.27782343  0.76269982  0.24172579     0.05400
H364        H  0.25597802  0.78575381  0.22687698    -0.00300
H365        H  0.24308042  0.74320171  0.23166342     0.01100
H366        H  0.16763562  0.84194059  0.28835728     0.04800
H367        H  0.15449834  0.79905559  0.29268730     0.06700
H368        H  0.13337515  0.82278461  0.27786810     0.07600
C369        C  0.33581890  0.68207580  0.08243165    -0.22000
C370        C  0.33602515  0.70811329  0.09348354     0.10000
C371        C  0.36618352  0.72617459  0.09608553     0.10400
C372        C  0.39602934  0.71552506  0.08878988    -0.16900
C373        C  0.39675782  0.68720494  0.07875982    -0.27300
C374        C  0.36514930  0.67266653  0.07441078     0.18700
C375        C  0.30536556  0.71383594  0.10316726     0.12700
C376        C  0.36689292  0.75690643  0.10647633    -0.11700
H377        H  0.41863435  0.72991053  0.09098127     0.12900
C378        C  0.36068349  0.64722002  0.06143624    -0.22500
H379        H  0.31253107  0.66862668  0.08011377     0.08600
C380        C  0.27449030  0.72500251  0.09683504     0.04900
C381        C  0.24594368  0.72718672  0.10657835    -0.19800
C382        C  0.24751314  0.71891135  0.12258993    -0.12000
C383        C  0.27897055  0.70855304  0.12891738     0.13600
C384        C  0.30708960  0.70587432  0.11908639    -0.22500
C385        C  0.27171815  0.73514551  0.07990338    -0.05600
H386        H  0.22220580  0.73523239  0.10160992     0.15200
C387        C  0.28344353  0.69921490  0.14590020    -0.15700
H388        H  0.33071790  0.69683513  0.12381386     0.09500
H389        H  0.34087696  0.65607818  0.05325592     0.07300
H390        H  0.35271647  0.62263321  0.06640204     0.08500
H391        H  0.38348334  0.64358752  0.05432925     0.07600
H392        H  0.36037483  0.75005747  0.11867266     0.02500
H393        H  0.34855019  0.77568162  0.10208354     0.02900
H394        H  0.39215483  0.76897905  0.10668412     0.06400
H395        H  0.24618941  0.74463802  0.07704798     0.05400
H396        H  0.27675119  0.71330438  0.07216790    -0.00300
H397        H  0.29016977  0.75547763  0.07735800     0.01100
H398        H  0.30963180  0.69134275  0.14854760     0.04800
H399        H  0.26663346  0.67778911  0.14890750     0.06700
H400        H  0.27785747  0.72125868  0.15345762     0.07600
C401        C  0.93115741  0.72869502  0.15793549    -0.22000
C402        C  0.94227408  0.73675356  0.14285614     0.10000
C403        C  0.91827646  0.74140728  0.13084610     0.10400
C404        C  0.88371617  0.73711231  0.13416533    -0.16900
C405        C  0.87259854  0.72760357  0.14917183    -0.27300
C406        C  0.89686258  0.72406529  0.16128796     0.18700
C407        C  0.97932194  0.73764982  0.14000153     0.12700
C408        C  0.92917047  0.75081744  0.11455964    -0.11700
H409        H  0.86543107  0.73998911  0.12484898     0.12900
C410        C  0.88710482  0.71562758  0.17788633    -0.22500
H411        H  0.94968923  0.72508453  0.16709969     0.08600
C412        C  0.00018438  0.76295227  0.14651619     0.04900
C413        C  0.03540583  0.75913217  0.14613550    -0.19800
C414        C  0.05038342  0.73041487  0.13949253    -0.12000
C415        C  0.02940375  0.70651362  0.13179651     0.13600
C416        C  0.99423226  0.71038189  0.13225910    -0.22500
C417        C  0.98523265  0.79377522  0.15404480    -0.05600
H418        H  0.05119067  0.77787937  0.15178542     0.15200
C419        C  0.04366139  0.67681287  0.12304667    -0.15700
H420        H  0.97815613  0.69116233  0.12714672     0.09500
H421        H  0.90904116  0.71678059  0.18594440     0.07300
H422        H  0.87683858  0.68964577  0.17849820     0.08500
H423        H  0.86813456  0.73389283  0.18217962     0.07600
H424        H  0.94525886  0.73072712  0.10956372     0.02500
H425        H  0.94363028  0.77479592  0.11493090     0.02900
H426        H  0.90728229  0.75425798  0.10663522     0.06400
H427        H  0.00501459  0.81154841  0.15816700     0.05400
H428        H  0.96971232  0.78651565  0.16428601    -0.00300
H429        H  0.96920011  0.80712711  0.14542236     0.01100
H430        H  0.05557649  0.65891632  0.13128996     0.04800
H431        H  0.06244584  0.68568209  0.11435434     0.06700
H432        H  0.02378378  0.66271496  0.11660615     0.07600
C433        C  0.56344176  0.67463771  0.10655259    -0.22000
C434        C  0.58819439  0.69209398  0.09811602     0.10000
C435        C  0.58145699  0.70161329  0.08249905     0.10400
C436        C  0.55011405  0.69334808  0.07569643    -0.16900
C437        C  0.52525289  0.67607348  0.08421471    -0.27300
C438        C  0.53220529  0.66633974  0.09982332     0.18700
C439        C  0.62142062  0.69832511  0.10579416     0.12700
C440        C  0.60709912  0.72097087  0.07315429    -0.11700
H441        H  0.54473352  0.70090320  0.06376988     0.12900
C442        C  0.50777316  0.64633416  0.10962523    -0.22500
H443        H  0.56877793  0.66692436  0.11846455     0.08600
C444        C  0.62602021  0.72397820  0.11705709     0.04900
C445        C  0.65646490  0.72591694  0.12550779    -0.19800
C446        C  0.68268842  0.70270219  0.12306640    -0.12000
C447        C  0.67827319  0.67764519  0.11126232     0.13600
C448        C  0.64782501  0.67599097  0.10281760    -0.22500
C449        C  0.59860450  0.74913024  0.12024384    -0.05600
H450        H  0.65940392  0.74527850  0.13436273     0.15200
C451        C  0.70469765  0.65154834  0.10776967    -0.15700
H452        H  0.64403922  0.65628921  0.09418185     0.09500
H453        H  0.50044096  0.66135142  0.12004133     0.07300
H454        H  0.52001771  0.62276103  0.11360339     0.08500
H455        H  0.48463542  0.63895822  0.10323143     0.07600
H456        H  0.63045317  0.70595105  0.07196717     0.02500
H457        H  0.61307557  0.74506283  0.07918680     0.02900
H458        H  0.59771470  0.72689316  0.06122673     0.06400
H459        H  0.60628999  0.76782757  0.12926310     0.05400
H460        H  0.57567996  0.73596775  0.12448195    -0.00300
H461        H  0.59251739  0.76293527  0.10932033     0.01100
H462        H  0.70954233  0.63610596  0.11834655     0.04800
H463        H  0.72826891  0.66406459  0.10388595     0.06700
H464        H  0.69668847  0.63408917  0.09828305     0.07600
C465        C  0.42632881  0.82710025  0.32682293    -0.22000
C466        C  0.44019118  0.79477704  0.32589544     0.10000
C467        C  0.41897216  0.76658961  0.32375587     0.10400
C468        C  0.38415301  0.77139145  0.32253111    -0.16900
C469        C  0.37014069  0.80364637  0.32368351    -0.27300
C470        C  0.39146128  0.83197048  0.32571205     0.18700
C471        C  0.47705203  0.79088430  0.32716917     0.12700
C472        C  0.43310650  0.73149806  0.32284368    -0.11700
H473        H  0.36767886  0.74978673  0.32101130     0.12900
C474        C  0.37857137  0.86761822  0.32626433    -0.22500
H475        H  0.44286267  0.84866319  0.32833822     0.08600
C476        C  0.49806660  0.79400078  0.31398316     0.04900
C477        C  0.53278282  0.78890349  0.31567653    -0.19800
C478        C  0.54694644  0.78091057  0.33027466    -0.12000
C479        C  0.52558912  0.77715645  0.34344960     0.13600
C480        C  0.49094994  0.78271942  0.34172594    -0.22500
C481        C  0.48379093  0.80266524  0.29816207    -0.05600
H482        H  0.54904918  0.79170679  0.30558274     0.15200
C483        C  0.53778832  0.76576917  0.35929368    -0.15700
H484        H  0.47446708  0.77982741  0.35174548     0.09500
H485        H  0.39068303  0.88256195  0.31683641     0.07300
H486        H  0.38501813  0.87914365  0.33773708     0.08500
H487        H  0.35101012  0.86938871  0.32456080     0.07600
H488        H  0.44656479  0.72547528  0.33387460     0.02500
H489        H  0.45093711  0.72970144  0.31289006     0.02900
H490        H  0.41300738  0.71232582  0.32109962     0.06400
H491        H  0.50369686  0.80399181  0.28906911     0.05400
H492        H  0.47116659  0.82752700  0.29871684    -0.00300
H493        H  0.46518978  0.78320089  0.29454957     0.01100
H494        H  0.53393252  0.78621142  0.36798383     0.04800
H495        H  0.56456003  0.75830781  0.35945666     0.06700
H496        H  0.52308911  0.74331988  0.36300912     0.07600
C497        C  0.69113430  0.72119735  0.25998137    -0.22000
C498        C  0.71509076  0.74353095  0.25380626     0.10000
C499        C  0.72868695  0.76896692  0.26351794     0.10400
C500        C  0.71786214  0.77156120  0.27914958    -0.16900
C501        C  0.69362165  0.74939109  0.28534484    -0.27300
C502        C  0.68064205  0.72332969  0.27565272     0.18700
C503        C  0.72618727  0.73885560  0.23728475     0.12700
C504        C  0.75472241  0.79323683  0.25741230    -0.11700
H505        H  0.72787824  0.79153311  0.28648797     0.12900
C506        C  0.65695339  0.69633950  0.28145332    -0.22500
H507        H  0.68105836  0.70137435  0.25256270     0.08600
C508        C  0.74732137  0.71195621  0.23297575     0.04900
C509        C  0.75483685  0.70662250  0.21709993    -0.19800
C510        C  0.74200180  0.72762363  0.20526831    -0.12000
C511        C  0.72135288  0.75519856  0.20968725     0.13600
C512        C  0.71400642  0.76048585  0.22563900    -0.22500
C513        C  0.76220284  0.68901064  0.24516765    -0.05600
H514        H  0.77088153  0.68570778  0.21389158     0.15200
C515        C  0.70495290  0.77861649  0.19812377    -0.15700
H516        H  0.69763202  0.78105282  0.22898445     0.09500
H517        H  0.66778477  0.67119387  0.27887079     0.07300
H518        H  0.63239502  0.69850613  0.27533410     0.08500
H519        H  0.65264292  0.69720472  0.29422738     0.07600
H520        H  0.74408682  0.80794743  0.24756109     0.02500
H521        H  0.77706521  0.77911894  0.25325703     0.02900
H522        H  0.76311166  0.81126627  0.26659090     0.06400
H523        H  0.77896911  0.66981562  0.23986882     0.05400
H524        H  0.74187300  0.67556130  0.25151642    -0.00300
H525        H  0.77725123  0.70407178  0.25363860     0.01100
H526        H  0.67732695  0.77866225  0.20008110     0.04800
H527        H  0.70887519  0.77151051  0.18577323     0.06700
H528        H  0.71473648  0.80457223  0.19992770     0.07600
C529        C  0.50175697  0.45961699  0.42593328    -0.22000
C530        C  0.49163546  0.49219360  0.42203189     0.10000
C531        C  0.51614060  0.51750093  0.41963035     0.10400
C532        C  0.55041362  0.50879605  0.41979939    -0.16900
C533        C  0.56066757  0.47568907  0.42300450    -0.27300
C534        C  0.53587141  0.45125701  0.42701490     0.18700
C535        C  0.45513227  0.49897873  0.42071868     0.12700
C536        C  0.50615745  0.55370498  0.41725102    -0.11700
H537        H  0.56918879  0.52781316  0.41715464     0.12900
C538        C  0.54402412  0.41658080  0.43312372    -0.22500
H539        H  0.48278937  0.44064044  0.42841435     0.08600
C540        C  0.43908309  0.50083930  0.40601924     0.04900
C541        C  0.40447750  0.50738583  0.40537293    -0.19800
C542        C  0.38499109  0.50944668  0.41904629    -0.12000
C543        C  0.40096923  0.50638126  0.43378510     0.13600
C544        C  0.43596033  0.50155503  0.43441809    -0.22500
C545        C  0.45805773  0.49428006  0.39105685    -0.05600
H546        H  0.39227103  0.50976820  0.39407932     0.15200
C547        C  0.38173523  0.50937953  0.44887572    -0.15700
H548        H  0.44848738  0.49951105  0.44565153     0.09500
H549        H  0.53576301  0.39725575  0.42451492     0.07300
H550        H  0.53040601  0.41233704  0.44429519     0.08500
H551        H  0.57102756  0.41299285  0.43576721     0.07600
H552        H  0.49175473  0.56259537  0.42757906     0.02500
H553        H  0.49023424  0.55633730  0.40667759     0.02900
H554        H  0.52849595  0.57032637  0.41583905     0.06400
H555        H  0.44137930  0.49587622  0.38064573     0.05400
H556        H  0.46895571  0.46858643  0.39138146    -0.00300
H557        H  0.47868170  0.51283960  0.38956165     0.01100
H558        H  0.36334631  0.48849761  0.44992654     0.04800
H559        H  0.36858291  0.53389155  0.44925114     0.06700
H560        H  0.39861060  0.50812338  0.45922753     0.07600
C561        C  0.66986619  0.58718112  0.40560118    -0.22000
C562        C  0.66253339  0.58985898  0.38957737     0.10000
C563        C  0.65240892  0.56080199  0.38125227     0.10400
C564        C  0.64884692  0.53004834  0.38920204    -0.16900
C565        C  0.65566578  0.52722871  0.40531422    -0.27300
C566        C  0.66715608  0.55616968  0.41352130     0.18700
C567        C  0.66464095  0.62332031  0.38169740     0.12700
C568        C  0.64470943  0.56239919  0.36399962    -0.11700
H569        H  0.64000927  0.50812087  0.38281184     0.12900
C570        C  0.67810543  0.55516497  0.43039516    -0.22500
H571        H  0.67814884  0.60940326  0.41193991     0.08600
C572        C  0.63811590  0.64670604  0.38268371     0.04900
C573        C  0.63971382  0.67671605  0.37396758    -0.19800
C574        C  0.66701131  0.68394065  0.36396700    -0.12000
C575        C  0.69398921  0.66054981  0.36328239     0.13600
C576        C  0.69247308  0.63077905  0.37223313    -0.22500
C577        C  0.60758790  0.63943289  0.39257819    -0.05600
H578        H  0.61885968  0.69415371  0.37463549     0.15200
C579        C  0.72440145  0.66631447  0.35310453    -0.15700
H580        H  0.71274336  0.61265524  0.37152910     0.09500
H581        H  0.66106360  0.57098786  0.43757054     0.07300
H582        H  0.70413832  0.56522244  0.43141317     0.08500
H583        H  0.67844664  0.52940126  0.43526735     0.07600
H584        H  0.66750624  0.57043319  0.35748405     0.02500
H585        H  0.62417858  0.58071076  0.36186217     0.02900
H586        H  0.63661463  0.53754408  0.35930845     0.06400
H587        H  0.58882189  0.66002889  0.39190143     0.05400
H588        H  0.61519292  0.63653522  0.40500474    -0.00300
H589        H  0.59528948  0.61581529  0.38851227     0.01100
H590        H  0.73666019  0.69055549  0.35629390     0.04800
H591        H  0.71684647  0.66659487  0.34059777     0.06700
H592        H  0.74336408  0.64607330  0.35452919     0.07600
C593        C  0.15593229  0.47541492  0.15118954    -0.22000
C594        C  0.17761984  0.49398571  0.16084476     0.10000
C595        C  0.20063945  0.47701724  0.17056308     0.10400
C596        C  0.20167597  0.44167404  0.17024469    -0.16900
C597        C  0.18037726  0.42278440  0.16034869    -0.27300
C598        C  0.15714307  0.44014309  0.15062721     0.18700
C599        C  0.17592143  0.53123776  0.16021851     0.12700
C600        C  0.22463173  0.49618248  0.18098008    -0.11700
H601        H  0.21952193  0.42879105  0.17770489     0.12900
C602        C  0.13388116  0.42223045  0.13935627    -0.22500
H603        H  0.13820918  0.48880769  0.14384447     0.08600
C604        C  0.18667349  0.54907667  0.14685623     0.04900
C605        C  0.18169979  0.58395122  0.14613717    -0.19800
C606        C  0.16680934  0.60162376  0.15855902    -0.12000
C607        C  0.15684818  0.58380323  0.17217396     0.13600
C608        C  0.16154007  0.54878884  0.17276884    -0.22500
C609        C  0.20392594  0.53144963  0.13346014    -0.05600
H610        H  0.18979631  0.59762217  0.13582490     0.15200
C611        C  0.13984029  0.60011605  0.18599985    -0.15700
H612        H  0.15304774  0.53489416  0.18294893     0.09500
H613        H  0.14880306  0.40741737  0.13081217     0.07300
H614        H  0.11822155  0.44014392  0.13256805     0.08500
H615        H  0.11644286  0.40544189  0.14585958     0.07600
H616        H  0.21036329  0.51119027  0.18967473     0.02500
H617        H  0.24040149  0.51333588  0.17379334     0.02900
H618        H  0.24162400  0.47903537  0.18749288     0.06400
H619        H  0.21191830  0.54943956  0.12423461     0.05400
H620        H  0.18665869  0.51282880  0.12798588    -0.00300
H621        H  0.22668321  0.51831327  0.13782973     0.01100
H622        H  0.11539464  0.58734625  0.18821742     0.04800
H623        H  0.13433078  0.62711333  0.18432311     0.06700
H624        H  0.15598762  0.59739378  0.19653451     0.07600
C625        C  0.21549159  0.97070074  0.33104099    -0.22000
C626        C  0.24352940  0.98757614  0.33731797     0.10000
C627        C  0.27124054  0.96865028  0.34261868     0.10400
C628        C  0.27109408  0.93350962  0.34071359    -0.16900
C629        C  0.24379183  0.91651977  0.33373449    -0.27300
C630        C  0.21520755  0.93543311  0.32910741     0.18700
C631        C  0.24548309  0.02500872  0.33644264     0.12700
C632        C  0.30150907  0.98569786  0.34979947    -0.11700
H633        H  0.29292914  0.91920921  0.34434987     0.12900
C634        C  0.18486094  0.92007888  0.32120040    -0.22500
H635        H  0.19430521  0.98534606  0.32690763     0.08600
C636        C  0.25627724  0.04097227  0.32258505     0.04900
C637        C  0.26191115  0.07587748  0.32257850    -0.19800
C638        C  0.25694777  0.09557067  0.33606567    -0.12000
C639        C  0.24533106  0.07965679  0.34990701     0.13600
C640        C  0.23955171  0.04457836  0.34985258    -0.22500
C641        C  0.26280319  0.02098252  0.30788967    -0.05600
H642        H  0.27086613  0.08787315  0.31197365     0.15200
C643        C  0.24064543  0.09809683  0.36517162    -0.15700
H644        H  0.23160828  0.03219103  0.36053039     0.09500
H645        H  0.18110087  0.93215681  0.30962207     0.07300
H646        H  0.16220829  0.92459471  0.32849186     0.08500
H647        H  0.18696969  0.89270876  0.31913678     0.07600
H648        H  0.29382877  0.99969032  0.36046405     0.02500
H649        H  0.31278840  0.00357160  0.34129772     0.02900
H650        H  0.32112832  0.96726074  0.35320922     0.06400
H651        H  0.27154442  0.03728818  0.29815004     0.05400
H652        H  0.23930253  0.00815884  0.30407431    -0.00300
H653        H  0.28248462  0.00181647  0.31013553     0.01100
H654        H  0.21391023  0.09620879  0.36883719     0.04800
H655        H  0.24762156  0.12503602  0.36462339     0.06700
H656        H  0.25664909  0.08635918  0.37430480     0.07600
C657        C  0.31570393  0.39268561  0.39239408    -0.22000
C658        C  0.28334630  0.38356282  0.38743416     0.10000
C659        C  0.25642462  0.40588666  0.39009915     0.10400
C660        C  0.26267780  0.43719734  0.39737383    -0.16900
C661        C  0.29535811  0.44701573  0.40196108    -0.27300
C662        C  0.32222563  0.42415223  0.39940063     0.18700
C663        C  0.27926861  0.35211750  0.37803659     0.12700
C664        C  0.22126352  0.39687926  0.38496451    -0.11700
H665        H  0.24200073  0.45448599  0.39918891     0.12900
C666        C  0.35829340  0.43349389  0.40258344    -0.22500
H667        H  0.33631355  0.37559429  0.39005455     0.08600
C668        C  0.28441655  0.35235223  0.36171981     0.04900
C669        C  0.28302935  0.32198482  0.35329375    -0.19800
C670        C  0.27703749  0.29084763  0.36070063    -0.12000
C671        C  0.27125554  0.29079271  0.37712461     0.13600
C672        C  0.27242453  0.32145407  0.38553710    -0.22500
C673        C  0.29209902  0.38469749  0.35320630    -0.05600
H674        H  0.28740613  0.32265242  0.34078669     0.15200
C675        C  0.26467222  0.25871581  0.38600530    -0.15700
H676        H  0.26868757  0.32147537  0.39809867     0.09500
H677        H  0.37593259  0.41349650  0.39874270     0.07300
H678        H  0.36266773  0.43736678  0.41524096     0.08500
H679        H  0.36453537  0.45649978  0.39590644     0.07600
H680        H  0.21303460  0.37343034  0.39091802     0.02500
H681        H  0.22063593  0.39281148  0.37211335     0.02900
H682        H  0.20307028  0.41710407  0.38786477     0.06400
H683        H  0.29547565  0.38051687  0.34045055     0.05400
H684        H  0.31565789  0.39602448  0.35787296    -0.00300
H685        H  0.27113434  0.40274463  0.35481940     0.01100
H686        H  0.28646197  0.24150313  0.38479325     0.04800
H687        H  0.24154763  0.24632201  0.38145448     0.06700
H688        H  0.26087830  0.26351329  0.39869113     0.07600
C689        C  0.27130085  0.25228494  0.25757431    -0.22000
C690        C  0.23862210  0.24445698  0.25264589     0.10000
C691        C  0.21637313  0.22815147  0.26300746     0.10400
C692        C  0.22713746  0.22080639  0.27830471    -0.16900
C693        C  0.25996943  0.22870654  0.28342369    -0.27300
C694        C  0.28247497  0.24447792  0.27272941     0.18700
C695        C  0.22856974  0.25409424  0.23655344     0.12700
C696        C  0.18150308  0.21808927  0.25783239    -0.11700
H697        H  0.20984030  0.20839901  0.28623316     0.12900
C698        C  0.31825594  0.25348253  0.27699084    -0.22500
H699        H  0.28819350  0.26465478  0.24943108     0.08600
C700        C  0.21446804  0.28587648  0.23342079     0.04900
C701        C  0.20857243  0.29540526  0.21785733    -0.19800
C702        C  0.21665191  0.27406339  0.20526004    -0.12000
C703        C  0.23088120  0.24204781  0.20847222     0.13600
C704        C  0.23625396  0.23244165  0.22410706    -0.22500
C705        C  0.20617562  0.30996724  0.24649760    -0.05600
H706        H  0.19752268  0.31979981  0.21551207     0.15200
C707        C  0.24254770  0.21796394  0.19595376    -0.15700
H708        H  0.24768824  0.20828494  0.22660638     0.09500
H709        H  0.33158741  0.26620429  0.26721592     0.07300
H710        H  0.33256837  0.23031341  0.27979466     0.08500
H711        H  0.31851733  0.27096767  0.28714442     0.07600
H712        H  0.18318553  0.20049727  0.24775008     0.02500
H713        H  0.16709154  0.24066399  0.25424822     0.02900
H714        H  0.16736855  0.20529586  0.26733644     0.06400
H715        H  0.19535007  0.33381757  0.24200794     0.05400
H716        H  0.22934984  0.31622590  0.25318486    -0.00300
H717        H  0.18753266  0.29835055  0.25451281     0.01100
H718        H  0.26936044  0.21153736  0.19803130     0.04800
H719        H  0.24112552  0.22826293  0.18397954     0.06700
H720        H  0.22732392  0.19448307  0.19648666     0.07600
C721        C  0.49912420  0.45987784  0.05810342    -0.22000
C722        C  0.47624994  0.47488339  0.06842330     0.10000
C723        C  0.45747154  0.45446969  0.07876506     0.10400
C724        C  0.46293922  0.41950663  0.07894887    -0.16900
C725        C  0.48683719  0.40469532  0.06906863    -0.27300
C726        C  0.50466926  0.42499990  0.05827711     0.18700
C727        C  0.47291092  0.51209850  0.06837709     0.12700
C728        C  0.43211270  0.46969847  0.08974513    -0.11700
H729        H  0.44923793  0.40379365  0.08713074     0.12900
C730        C  0.52975287  0.41077255  0.04683335    -0.22500
H731        H  0.51314452  0.47558543  0.05002352     0.08600
C732        C  0.49371872  0.53278650  0.07779168     0.04900
C733        C  0.48976865  0.56794297  0.07732636    -0.19800
C734        C  0.46551431  0.58278302  0.06765048    -0.12000
C735        C  0.44538657  0.56203582  0.05785245     0.13600
C736        C  0.44911005  0.52692683  0.05848534    -0.22500
C737        C  0.51990774  0.51768379  0.08838518    -0.05600
H738        H  0.50524127  0.58390384  0.08474396     0.15200
C739        C  0.42046720  0.57600508  0.04628417    -0.15700
H740        H  0.43359601  0.51098755  0.05107083     0.09500
H741        H  0.55488072  0.42219347  0.04900929     0.07300
H742        H  0.52171407  0.41684327  0.03471478     0.08500
H743        H  0.53228232  0.38306775  0.04763067     0.07600
H744        H  0.41237181  0.48285577  0.08291393     0.02500
H745        H  0.44472682  0.48805103  0.09764357     0.02900
H746        H  0.41969126  0.45023248  0.09708320     0.06400
H747        H  0.53394266  0.53735631  0.09499343     0.05400
H748        H  0.53825571  0.50312817  0.08132900    -0.00300
H749        H  0.50769004  0.50061582  0.09695733     0.01100
H750        H  0.42622853  0.56619163  0.03441061     0.04800
H751        H  0.42134597  0.60378267  0.04554875     0.06700
H752        H  0.39461372  0.56805611  0.04957699     0.07600
C753        C  0.30975919  0.32057979  0.10392338    -0.22000
C754        C  0.33504652  0.29762204  0.10781607     0.10000
C755        C  0.32915224  0.27419976  0.11992097     0.10400
C756        C  0.29856296  0.27511011  0.12823538    -0.16900
C757        C  0.27375925  0.29938228  0.12498910    -0.27300
C758        C  0.27932581  0.32195690  0.11231457     0.18700
C759        C  0.36868020  0.30129957  0.10025586     0.12700
C760        C  0.35541054  0.24857747  0.12421307    -0.11700
H761        H  0.29467113  0.25757239  0.13776662     0.12900
C762        C  0.25381938  0.34803697  0.10755770    -0.22500
H763        H  0.31450200  0.33851444  0.09462574     0.08600
C764        C  0.37524088  0.29018489  0.08484056     0.04900
C765        C  0.40714970  0.29618658  0.07812836    -0.19800
C766        C  0.43258017  0.31316921  0.08647561    -0.12000
C767        C  0.42548506  0.32508554  0.10179908     0.13600
C768        C  0.39393201  0.31848445  0.10850754    -0.22500
C769        C  0.34872068  0.27164484  0.07560509    -0.05600
H770        H  0.41242604  0.28724023  0.06639643     0.15200
C771        C  0.44983176  0.34605413  0.11130224    -0.15700
H772        H  0.38860533  0.32770425  0.12019943     0.09500
H773        H  0.26173630  0.36190482  0.09689297     0.07300
H774        H  0.25075278  0.36694777  0.11702120     0.08500
H775        H  0.22932661  0.33566535  0.10496071     0.07600
H776        H  0.37871408  0.26148794  0.12821555     0.02500
H777        H  0.36126530  0.23274338  0.11385171     0.02900
H778        H  0.34669581  0.23177319  0.13377363     0.06400
H779        H  0.35802581  0.26420065  0.06385085     0.05400
H780        H  0.32637209  0.28795402  0.07399402    -0.00300
H781        H  0.34111755  0.24847629  0.08196312     0.01100
H782        H  0.43744353  0.36986729  0.11489004     0.04800
H783        H  0.47281643  0.35328665  0.10483878     0.06700
H784        H  0.45726271  0.33199153  0.12196927     0.07600
C785        C  0.75341641  0.53136094  0.16507765    -0.22000
C786        C  0.78315100  0.51702249  0.15949536     0.10000
C787        C  0.80833437  0.53760053  0.15294986     0.10400
C788        C  0.80341700  0.57250145  0.15238880    -0.16900
C789        C  0.77383977  0.58732663  0.15824502    -0.27300
C790        C  0.74829531  0.56624947  0.16456340     0.18700
C791        C  0.78696664  0.48017364  0.16047526     0.12700
C792        C  0.84041403  0.52268928  0.14667755    -0.11700
H793        H  0.82305054  0.58827060  0.14748431     0.12900
C794        C  0.71541137  0.57983398  0.17063571    -0.22500
H795        H  0.73415433  0.51502337  0.16992161     0.08600
C796        C  0.79830394  0.46454730  0.17428131     0.04900
C797        C  0.80007054  0.42931142  0.17484839    -0.19800
C798        C  0.79016878  0.40941876  0.16200207    -0.12000
C799        C  0.77756740  0.42534133  0.14834858     0.13600
C800        C  0.77705632  0.46057295  0.14765737    -0.22500
C801        C  0.80849635  0.48511405  0.18835974    -0.05600
H802        H  0.80941544  0.41725170  0.18535121     0.15200
C803        C  0.76248458  0.40650667  0.13465442    -0.15700
H804        H  0.76756923  0.47291459  0.13724299     0.09500
H805        H  0.72002561  0.59639906  0.18089909     0.07300
H806        H  0.69820711  0.55937027  0.17450564     0.08500
H807        H  0.70236966  0.59405249  0.16125561     0.07600
H808        H  0.83450922  0.50478498  0.13705346     0.02500
H809        H  0.85376717  0.50909060  0.15615827     0.02900
H810        H  0.85760973  0.54236283  0.14201090     0.06400
H811        H  0.81697968  0.46893727  0.19817858     0.05400
H812        H  0.78678892  0.50021389  0.19249327    -0.00300
H813        H  0.82947610  0.50234938  0.18520668     0.01100
H814        H  0.73759209  0.41747473  0.13172307     0.04800
H815        H  0.75770025  0.37955054  0.13701492     0.06700
H816        H  0.77921531  0.40898411  0.12432399     0.07600
C817        C  0.95642313  0.25280474  0.15045954    -0.22000
C818        C  0.97593436  0.28228130  0.15137631     0.10000
C819        C  0.95985338  0.31354365  0.15339694     0.10400
C820        C  0.92475233  0.31459250  0.15489741    -0.16900
C821        C  0.90491107  0.28512402  0.15452077    -0.27300
C822        C  0.92107402  0.25376108  0.15198092     0.18700
C823        C  0.01329191  0.28006533  0.15152086     0.12700
C824        C  0.97986622  0.34581595  0.15442374    -0.11700
H825        H  0.91279890  0.33878486  0.15665738     0.12900
C826        C  0.90164520  0.22114536  0.15138576    -0.22500
H827        H  0.96904810  0.22887331  0.14895570     0.08600
C828        C  0.03083529  0.27393953  0.16557335     0.04900
C829        C  0.06607004  0.27652873  0.16581868    -0.19800
C830        C  0.08446766  0.28521988  0.15234628    -0.12000
C831        C  0.06682683  0.29024591  0.13809697     0.13600
C832        C  0.03144371  0.28753905  0.13788775    -0.22500
C833        C  0.01222587  0.26583177  0.18046155    -0.05600
H834        H  0.07928481  0.27259509  0.17676400     0.15200
C835        C  0.08475829  0.30016171  0.12327543    -0.15700
H836        H  0.01771480  0.29249545  0.12717370     0.09500
H837        H  0.91847453  0.19918702  0.14964878     0.07300
H838        H  0.88357282  0.22160370  0.14147477     0.08500
H839        H  0.88787863  0.21736727  0.16254645     0.07600
H840        H  0.99417647  0.34968094  0.14342227     0.02500
H841        H  0.99773081  0.34455260  0.16440488     0.02900
H842        H  0.96341001  0.36803252  0.15621284     0.06400
H843        H  0.02969570  0.26210153  0.19045967     0.05400
H844        H  0.99736569  0.24233417  0.17887736    -0.00300
H845        H  0.99496555  0.28677656  0.18347803     0.01100
H846        H  0.06690867  0.30400864  0.11343155     0.04800
H847        H  0.10249925  0.27999957  0.11977412     0.06700
H848        H  0.09874220  0.32411543  0.12513132     0.07600
C849        C  0.64822543  0.30419098  0.13048941    -0.22000
C850        C  0.65057328  0.29131575  0.11527290     0.10000
C851        C  0.68097011  0.27628457  0.11042205     0.10400
C852        C  0.70855959  0.27524016  0.12081105    -0.16900
C853        C  0.70659560  0.28872762  0.13605186    -0.27300
C854        C  0.67550013  0.30302477  0.14096562     0.18700
C855        C  0.62081809  0.29476610  0.10471249     0.12700
C856        C  0.68417037  0.26098706  0.09435825    -0.11700
H857        H  0.73193788  0.26410340  0.11690105     0.12900
C858        C  0.67051431  0.31785062  0.15706628    -0.22500
H859        H  0.62480042  0.31571671  0.13412071     0.08600
C860        C  0.59091164  0.27648891  0.10729538     0.04900
C861        C  0.56202202  0.28393128  0.09846533    -0.19800
C862        C  0.56174718  0.30954820  0.08697553    -0.12000
C863        C  0.59340215  0.32470430  0.08309920     0.13600
C864        C  0.62193887  0.31793428  0.09239310    -0.22500
C865        C  0.58959291  0.24865391  0.11925781    -0.05600
H866        H  0.53995712  0.26880778  0.10058677     0.15200
C867        C  0.59832473  0.34736928  0.06905266    -0.15700
H868        H  0.64536016  0.33114330  0.09014563     0.09500
H869        H  0.67469575  0.29824413  0.16609680     0.07300
H870        H  0.64458227  0.32756863  0.15871902     0.08500
H871        H  0.68808000  0.33932183  0.15889120     0.07600
H872        H  0.68081458  0.28062695  0.08528485     0.02500
H873        H  0.66470184  0.24112609  0.09276738     0.02900
H874        H  0.70924926  0.24935375  0.09258271     0.06400
H875        H  0.56466072  0.23591375  0.11943742     0.05400
H876        H  0.59441297  0.25892421  0.13113344    -0.00300
H877        H  0.60893716  0.22946697  0.11645743     0.01100
H878        H  0.62519199  0.35445813  0.06753411     0.04800
H879        H  0.58441112  0.37124916  0.07017569     0.06700
H880        H  0.59059213  0.33420555  0.05818737     0.07600
C881        C  0.44821965  0.15195837  0.33120779    -0.22000
C882        C  0.46779542  0.17623938  0.33891251     0.10000
C883        C  0.45223352  0.20397331  0.34621460     0.10400
C884        C  0.41712827  0.20708226  0.34543485    -0.16900
C885        C  0.39763427  0.18369607  0.33703735    -0.27300
C886        C  0.41323241  0.15544029  0.33007222     0.18700
C887        C  0.50471996  0.17381633  0.33777218     0.12700
C888        C  0.47278787  0.23073591  0.35436110    -0.11700
H889        H  0.40500872  0.22862240  0.35079001     0.12900
C890        C  0.39313713  0.12873872  0.32159907    -0.22500
H891        H  0.46054980  0.13077431  0.32565078     0.08600
C892        C  0.52398719  0.15616276  0.34885372     0.04900
C893        C  0.55900815  0.15449933  0.34695232    -0.19800
C894        C  0.57510099  0.16979520  0.33410643    -0.12000
C895        C  0.55537538  0.18745634  0.32297223     0.13600
C896        C  0.52044920  0.18916124  0.32500777    -0.22500
C897        C  0.50753697  0.13903192  0.36258741    -0.05600
H898        H  0.57382718  0.14090877  0.35549741     0.15200
C899        C  0.57060496  0.20525676  0.30908942    -0.15700
H900        H  0.50514601  0.20259064  0.31657907     0.09500
H901        H  0.40927673  0.10757899  0.31766969     0.07300
H902        H  0.38102472  0.13957288  0.31105794     0.08500
H903        H  0.37353638  0.11833351  0.32950204     0.07600
H904        H  0.49033944  0.24265452  0.34590377     0.02500
H905        H  0.48752410  0.21934183  0.36401949     0.02900
H906        H  0.45664397  0.25077918  0.35939578     0.06400
H907        H  0.52628092  0.12628297  0.37016593     0.05400
H908        H  0.48933010  0.11979146  0.35833470    -0.00300
H909        H  0.49398507  0.15785131  0.36980864     0.01100
H910        H  0.58265235  0.18671340  0.30116499     0.04800
H911        H  0.58944700  0.22409087  0.31313447     0.06700
H912        H  0.55133962  0.21885622  0.30213763     0.07600
C913        C  0.73342746  0.00276313  0.33787228    -0.22000
C914        C  0.70384334  0.98459009  0.34103727     0.10000
C915        C  0.67350498  0.00221654  0.34330580     0.10400
C916        C  0.67315784  0.03740541  0.34186505    -0.16900
C917        C  0.70241633  0.05584674  0.33823241    -0.27300
C918        C  0.73317808  0.03815869  0.33633833     0.18700
C919        C  0.70378720  0.94709197  0.34020733     0.12700
C920        C  0.64120627  0.98373074  0.34686505    -0.11700
H921        H  0.64958084  0.05065426  0.34339276     0.12900
C922        C  0.76578904  0.05499722  0.33180929    -0.22500
H923        H  0.75662379  0.98909723  0.33593701     0.08600
C924        C  0.69771430  0.93051814  0.32587625     0.04900
C925        C  0.69187695  0.89566214  0.32574196    -0.19800
C926        C  0.69168651  0.87654009  0.33959075    -0.12000
C927        C  0.69943527  0.89299923  0.35396024     0.13600
C928        C  0.70553220  0.92805833  0.35400683    -0.22500
C929        C  0.69614384  0.94987443  0.31074109    -0.05600
H930        H  0.68643124  0.88333529  0.31468581     0.15200
C931        C  0.69960255  0.87548998  0.36959278    -0.15700
H932        H  0.71003544  0.94093581  0.36501876     0.09500
H933        H  0.77541953  0.04343314  0.32085892     0.07300
H934        H  0.78465717  0.05123377  0.34123378     0.08500
H935        H  0.76343220  0.08228231  0.32962350     0.07600
H936        H  0.64399502  0.96939500  0.35792738     0.02500
H937        H  0.63510634  0.96598219  0.33720472     0.02900
H938        H  0.61969908  0.00126000  0.34823880     0.06400
H939        H  0.69100148  0.93311033  0.30058747     0.05400
H940        H  0.72053924  0.96283668  0.30867823    -0.00300
H941        H  0.67578040  0.96889137  0.31132071     0.01100
H942        H  0.72509153  0.87749990  0.37486595     0.04800
H943        H  0.69262728  0.84860255  0.36901444     0.06700
H944        H  0.68131467  0.88792474  0.37751816     0.07600
C945        C  0.69210782  0.27811249  0.38829248    -0.22000
C946        C  0.68961093  0.30987687  0.38124086     0.10000
C947        C  0.69328907  0.31250973  0.36488818     0.10400
C948        C  0.69777574  0.28321977  0.35587410    -0.16900
C949        C  0.69827396  0.25094493  0.36271570    -0.27300
C950        C  0.69629656  0.24859508  0.37929152     0.18700
C951        C  0.67896727  0.33941148  0.39082127     0.12700
C952        C  0.69104889  0.34619282  0.35687820    -0.11700
H953        H  0.69958801  0.28557636  0.34327264     0.12900
C954        C  0.69706786  0.21521955  0.38763145    -0.22500
H955        H  0.68920284  0.27630848  0.40087452     0.08600
C956        C  0.64480159  0.34462408  0.39428244     0.04900
C957        C  0.63508961  0.37354129  0.40256129    -0.19800
C958        C  0.65836038  0.39895164  0.40704382    -0.12000
C959        C  0.69321220  0.39216959  0.40436977     0.13600
C960        C  0.70279719  0.36289086  0.39612275    -0.22500
C961        C  0.61828015  0.31980887  0.38894247    -0.05600
H962        H  0.60892428  0.37520305  0.40558721     0.15200
C963        C  0.72149489  0.41465338  0.40998295    -0.15700
H964        H  0.72919675  0.35840727  0.39373387     0.09500
H965        H  0.67547278  0.19938123  0.38381029     0.07300
H966        H  0.69525519  0.21831067  0.40052544     0.08500
H967        H  0.72108672  0.20214415  0.38507880     0.07600
H968        H  0.71113684  0.36316099  0.36137466     0.02500
H969        H  0.66612394  0.35769318  0.35920686     0.02900
H970        H  0.69413866  0.34389621  0.34400509     0.06400
H971        H  0.59255467  0.32783567  0.39233061     0.05400
H972        H  0.62300251  0.29480187  0.39426875    -0.00300
H973        H  0.61894323  0.31742092  0.37599672     0.01100
H974        H  0.73883534  0.39980319  0.41744958     0.04800
H975        H  0.71329469  0.43640859  0.41703789     0.06700
H976        H  0.73574035  0.42433092  0.39975568     0.07600
C977        C  0.77043251  0.25909046  0.23960472    -0.22000
C978        C  0.76637284  0.22413424  0.24055483     0.10000
C979        C  0.77163623  0.20422947  0.22709615     0.10400
C980        C  0.77960823  0.21995476  0.21283505    -0.16900
C981        C  0.78260472  0.25522629  0.21164648    -0.27300
C982        C  0.77877654  0.27496261  0.22544988     0.18700
C983        C  0.75416686  0.20959026  0.25554159     0.12700
C984        C  0.76903610  0.16640853  0.22779982    -0.11700
H985        H  0.78301313  0.20449738  0.20250026     0.12900
C986        C  0.78304348  0.31272786  0.22557920    -0.22500
H987        H  0.76629809  0.27415258  0.25001866     0.08600
C988        C  0.77451189  0.20861042  0.26907163     0.04900
C989        C  0.76045073  0.19802305  0.28334420    -0.19800
C990        C  0.72635097  0.18855333  0.28451444    -0.12000
C991        C  0.70627255  0.18866872  0.27070470     0.13600
C992        C  0.72052966  0.19920341  0.25648260    -0.22500
C993        C  0.81109691  0.21861113  0.26843615    -0.05600
H994        H  0.77614058  0.19782611  0.29372189     0.15200
C995        C  0.66981199  0.17792539  0.27064547    -0.15700
H996        H  0.70506444  0.20022026  0.24603248     0.09500
H997        H  0.80869410  0.31953380  0.22149441     0.07300
H998        H  0.77998377  0.32346278  0.23750642     0.08500
H999        H  0.76378093  0.32457001  0.21797927     0.07600
H1000       H  0.74317634  0.15874578  0.23118260     0.02500
H1001       H  0.78719437  0.15662427  0.23655182     0.02900
H1002       H  0.77479176  0.15459748  0.21632223     0.06400
H1003       H  0.82363402  0.21555835  0.27996758     0.05400
H1004       H  0.81357567  0.24540148  0.26495298    -0.00300
H1005       H  0.82441023  0.20257326  0.25979229     0.01100
H1006       H  0.65473038  0.19535266  0.27796341     0.04800
H1007       H  0.66747693  0.15178680  0.27511590     0.06700
H1008       H  0.65884539  0.17832983  0.25868183     0.07600
C1009       C  0.78340438  0.21606964  0.72881254    -0.22000
C1010       C  0.76021217  0.23331344  0.73817159     0.10000
C1011       C  0.72892458  0.24277250  0.73181115     0.10400
C1012       C  0.72128228  0.23432628  0.71626658    -0.16900
C1013       C  0.74441644  0.21717613  0.70669405    -0.27300
C1014       C  0.77607278  0.20801702  0.71311265     0.18700
C1015       C  0.76957929  0.24275093  0.75441289     0.12700
C1016       C  0.70359795  0.26189573  0.74144058    -0.11700
H1017       H  0.69709756  0.24164475  0.71151843     0.12900
C1018       C  0.80218634  0.18954532  0.70368246    -0.22500
H1019       H  0.80750829  0.20921328  0.73380618     0.08600
C1020       C  0.76600171  0.22020125  0.76702445     0.04900
C1021       C  0.77294887  0.23139270  0.78232728    -0.19800
C1022       C  0.78320440  0.26477779  0.78535307    -0.12000
C1023       C  0.78760109  0.28706656  0.77246150     0.13600
C1024       C  0.78077723  0.27560460  0.75723515    -0.22500
C1025       C  0.75425824  0.18455889  0.76432485    -0.05600
H1026       H  0.76975566  0.21405170  0.79199035     0.15200
C1027       C  0.79944649  0.32299844  0.77438523    -0.15700
H1028       H  0.78356908  0.29259991  0.74740025     0.09500
H1029       H  0.79161299  0.16535780  0.69931582     0.07300
H1030       H  0.82486933  0.18369074  0.71076847     0.08500
H1031       H  0.81044713  0.20533073  0.69368467     0.07600
H1032       H  0.71440433  0.28649706  0.74511355     0.02500
H1033       H  0.69682971  0.24709946  0.75199593     0.02900
H1034       H  0.68017054  0.26692436  0.73475321     0.06400
H1035       H  0.75254207  0.17022084  0.77544342     0.05400
H1036       H  0.77220339  0.17135520  0.75650879    -0.00300
H1037       H  0.72897115  0.18465715  0.75878069     0.01100
H1038       H  0.82436315  0.32353277  0.78027836     0.04800
H1039       H  0.78082084  0.33756165  0.78127194     0.06700
H1040       H  0.80234502  0.33593822  0.76294913     0.07600
C1041       C  0.68077147  0.46105137  0.51427585    -0.22000
C1042       C  0.67294995  0.48890365  0.50490407     0.10000
C1043       C  0.66968536  0.52081597  0.51201578     0.10400
C1044       C  0.67235104  0.52378705  0.52837697    -0.16900
C1045       C  0.67908919  0.49574220  0.53796128    -0.27300
C1046       C  0.68474540  0.46414505  0.53059729     0.18700
C1047       C  0.66671452  0.48388423  0.48781487     0.12700
C1048       C  0.66339240  0.55181377  0.50232423    -0.11700
H1049       H  0.66794369  0.54813167  0.53371541     0.12900
C1050       C  0.69607604  0.43332505  0.53933542    -0.22500
H1051       H  0.68388044  0.43661144  0.50879145     0.08600
C1052       C  0.69298819  0.47750333  0.47710911     0.04900
C1053       C  0.68536151  0.47226503  0.46117375    -0.19800
C1054       C  0.65206923  0.47351389  0.45559392    -0.12000
C1055       C  0.62579593  0.48018587  0.46637496     0.13600
C1056       C  0.63350998  0.48517008  0.48229260    -0.22500
C1057       C  0.72907723  0.47661256  0.48246737    -0.05600
H1058       H  0.70552757  0.46715855  0.45298523     0.15200
C1059       C  0.58939133  0.48049170  0.46147669    -0.15700
H1060       H  0.61341629  0.48980180  0.49058386     0.09500
H1061       H  0.71960095  0.42361032  0.53400737     0.07300
H1062       H  0.67636449  0.41348045  0.53861804     0.08500
H1063       H  0.70170566  0.43853650  0.55174173     0.07600
H1064       H  0.63902404  0.54947188  0.49605980     0.02500
H1065       H  0.68396850  0.55493869  0.49365934     0.02900
H1066       H  0.66247519  0.57491821  0.50965738     0.06400
H1067       H  0.74657766  0.47213683  0.47256171     0.05400
H1068       H  0.73259052  0.45606185  0.49108617    -0.00300
H1069       H  0.73588784  0.50104097  0.48799683     0.01100
H1070       H  0.57230245  0.48366615  0.47164349     0.04800
H1071       H  0.58288411  0.45628716  0.45573746     0.06700
H1072       H  0.58453539  0.50172615  0.45342908     0.07600
C1073       C  0.71925119  0.34759555  0.62778244    -0.22000
C1074       C  0.70908232  0.34517887  0.61211838     0.10000
C1075       C  0.70595327  0.31305912  0.60514631     0.10400
C1076       C  0.71156969  0.28400183  0.61422257    -0.16900
C1077       C  0.71973878  0.28626254  0.63022755    -0.27300
C1078       C  0.72455492  0.31869290  0.63694531     0.18700
C1079       C  0.70022362  0.37665592  0.60358198     0.12700
C1080       C  0.69565248  0.30951854  0.58826283    -0.11700
H1081       H  0.70798288  0.25939669  0.60895382     0.12900
C1082       C  0.73554257  0.32327984  0.65371652    -0.22500
H1083       H  0.72209722  0.37236593  0.63299048     0.08600
C1084       C  0.66859707  0.39213986  0.60564483     0.04900
C1085       C  0.66175473  0.42275793  0.59806490    -0.19800
C1086       C  0.68531479  0.43791951  0.58804801    -0.12000
C1087       C  0.71744819  0.42296332  0.58640890     0.13600
C1088       C  0.72431040  0.39231369  0.59402893    -0.22500
C1089       C  0.64212402  0.37643763  0.61594858    -0.05600
H1090       H  0.63816787  0.43541096  0.60034294     0.15200
C1091       C  0.74547205  0.43915638  0.57720788    -0.15700
H1092       H  0.74889822  0.38089483  0.59277093     0.09500
H1093       H  0.74071040  0.35014193  0.65651360     0.07300
H1094       H  0.75901033  0.30891929  0.65587083     0.08500
H1095       H  0.71549283  0.31461191  0.66179278     0.07600
H1096       H  0.71436115  0.32235673  0.58067457     0.02500
H1097       H  0.67057574  0.32112858  0.58645832     0.02900
H1098       H  0.69408498  0.28269334  0.58461616     0.06400
H1099       H  0.61865964  0.39154112  0.61612769     0.05400
H1100       H  0.65162398  0.37453533  0.62813312    -0.00300
H1101       H  0.63578112  0.35085722  0.61154572     0.01100
H1102       H  0.76713452  0.44428402  0.58509428     0.04800
H1103       H  0.73805743  0.46330648  0.57175499     0.06700
H1104       H  0.75371540  0.42180406  0.56777088     0.07600
C1105       C  0.73263911  0.96989655  0.66437495    -0.22000
C1106       C  0.75191747  0.98236618  0.65198256     0.10000
C1107       C  0.76923270  0.95957760  0.64222029     0.10400
C1108       C  0.76527273  0.92458697  0.64457925    -0.16900
C1109       C  0.74402009  0.91193677  0.65639305    -0.27300
C1110       C  0.72828082  0.93519667  0.66671325     0.18700
C1111       C  0.75088043  0.01929254  0.64898998     0.12700
C1112       C  0.79114927  0.97226211  0.62913736    -0.11700
H1113       H  0.77785313  0.90711187  0.63681084     0.12900
C1114       C  0.70685640  0.92403649  0.68033911    -0.22500
H1115       H  0.71984883  0.98763442  0.67195714     0.08600
C1116       C  0.72240537  0.03396787  0.64193259     0.04900
C1117       C  0.71917359  0.06915005  0.64172189    -0.19800
C1118       C  0.74341348  0.09044724  0.64866987    -0.12000
C1119       C  0.77306258  0.07562587  0.65491655     0.13600
C1120       C  0.77634907  0.04023429  0.65495844    -0.22500
C1121       C  0.69482531  0.01237057  0.63501971    -0.05600
H1122       H  0.69663248  0.07994181  0.63668613     0.15200
C1123       C  0.80083775  0.09651067  0.66208905    -0.15700
H1124       H  0.79817307  0.02874343  0.66034023     0.09500
H1125       H  0.69905320  0.94562145  0.68776682     0.07300
H1126       H  0.72126277  0.90642484  0.68785095     0.08500
H1127       H  0.68349007  0.91170408  0.67605240     0.07600
H1128       H  0.81162789  0.98826445  0.63400766     0.02500
H1129       H  0.77587732  0.98740617  0.62086915     0.02900
H1130       H  0.80281154  0.95123855  0.62251900     0.06400
H1131       H  0.67456362  0.02780264  0.62971518     0.05400
H1132       H  0.68328876  0.99647301  0.64425123    -0.00300
H1133       H  0.70541393  0.99589869  0.62575499     0.01100
H1134       H  0.79128821  0.11021900  0.67249827     0.04800
H1135       H  0.81063719  0.11468198  0.65333382     0.06700
H1136       H  0.82224235  0.08069850  0.66599983     0.07600
C1137       C  0.73089160  0.60077508  0.60004631    -0.22000
C1138       C  0.70742721  0.62547821  0.60408106     0.10000
C1139       C  0.67371439  0.62127747  0.59938681     0.10400
C1140       C  0.66398646  0.59198307  0.59127175    -0.16900
C1141       C  0.68686323  0.56569075  0.58783159    -0.27300
C1142       C  0.72145573  0.57150845  0.59171702     0.18700
C1143       C  0.71827317  0.65546401  0.61339210     0.12700
C1144       C  0.64769359  0.64764505  0.60314326    -0.11700
H1145       H  0.63825361  0.59080051  0.58742661     0.12900
C1146       C  0.74973344  0.54810072  0.58727593    -0.22500
H1147       H  0.75701377  0.60450468  0.60334046     0.08600
C1148       C  0.72227530  0.65367012  0.62976184     0.04900
C1149       C  0.72853540  0.68327997  0.63835234    -0.19800
C1150       C  0.73066525  0.71505146  0.63106082    -0.12000
C1151       C  0.72824259  0.71646083  0.61447626     0.13600
C1152       C  0.72218466  0.68664264  0.60591240    -0.22500
C1153       C  0.71872439  0.62061641  0.63824147    -0.05600
H1154       H  0.73059280  0.68160448  0.65097091     0.15200
C1155       C  0.73086855  0.74916480  0.60564539    -0.15700
H1156       H  0.71929440  0.68776302  0.59330951     0.09500
H1157       H  0.76149829  0.53783835  0.59804185     0.07300
H1158       H  0.76909523  0.56239445  0.58065022     0.08500
H1159       H  0.74205713  0.52680959  0.57975837     0.07600
H1160       H  0.65453012  0.67181449  0.59745294     0.02500
H1161       H  0.64633756  0.65144818  0.61600382     0.02900
H1162       H  0.62223811  0.64025996  0.59895042     0.06400
H1163       H  0.72204719  0.62363461  0.65107618     0.05400
H1164       H  0.73805793  0.60270474  0.63399517    -0.00300
H1165       H  0.69331323  0.60981775  0.63608138     0.01100
H1166       H  0.72886077  0.74528216  0.59280101     0.04800
H1167       H  0.75559951  0.76124032  0.60803967     0.06700
H1168       H  0.71018172  0.76626314  0.60917537     0.07600
C1169       C  0.83673612  0.53161774  0.82216215    -0.22000
C1170       C  0.81976327  0.51636156  0.83461832     0.10000
C1171       C  0.80606201  0.53633592  0.84664314     0.10400
C1172       C  0.80963555  0.57143462  0.84591924    -0.16900
C1173       C  0.82620510  0.58706946  0.83331902    -0.27300
C1174       C  0.84000341  0.56674280  0.82125377     0.18700
C1175       C  0.81632666  0.47932431  0.83471821     0.12700
C1176       C  0.78715690  0.52060260  0.86006136    -0.11700
H1177       H  0.79889782  0.58675539  0.85514396     0.12900
C1178       C  0.85868424  0.58148847  0.80751039    -0.22500
H1179       H  0.84724473  0.51584339  0.81303762     0.08600
C1180       C  0.79227972  0.46282863  0.82528251     0.04900
C1181       C  0.78994142  0.42764238  0.82576108    -0.19800
C1182       C  0.81095794  0.40850257  0.83554234    -0.12000
C1183       C  0.83529737  0.42528314  0.84494451     0.13600
C1184       C  0.83761608  0.46053157  0.84436133    -0.22500
C1185       C  0.76881819  0.48241030  0.81487461    -0.05600
H1186       H  0.77133127  0.41506211  0.81851086     0.15200
C1187       C  0.85948188  0.40652225  0.85533410    -0.15700
H1188       H  0.85616823  0.47362672  0.85145478     0.09500
H1189       H  0.86904922  0.56160977  0.79974829     0.07300
H1190       H  0.88010029  0.59711729  0.81172794     0.08500
H1191       H  0.84140639  0.59700501  0.80032604     0.07600
H1192       H  0.80401167  0.50351123  0.86666270     0.02500
H1193       H  0.76536254  0.50597939  0.85549786     0.02900
H1194       H  0.77750730  0.53989203  0.86832715     0.06400
H1195       H  0.75112536  0.46560308  0.80845994     0.05400
H1196       H  0.78351878  0.49685467  0.80610713    -0.00300
H1197       H  0.75377702  0.50014893  0.82205880     0.01100
H1198       H  0.87755723  0.42380359  0.86122894     0.04800
H1199       H  0.87427727  0.38838319  0.84825340     0.06700
H1200       H  0.84544174  0.39297025  0.86462398     0.07600
C1201       C  0.80548592  0.71769497  0.75682112    -0.22000
C1202       C  0.79569592  0.75103176  0.75427155     0.10000
C1203       C  0.79554660  0.77395796  0.76689704     0.10400
C1204       C  0.80509517  0.76290297  0.78185523    -0.16900
C1205       C  0.81445320  0.72926794  0.78461218    -0.27300
C1206       C  0.81484383  0.70637680  0.77176433     0.18700
C1207       C  0.78391613  0.76079493  0.73843502     0.12700
C1208       C  0.78533584  0.81011393  0.76458266    -0.11700
H1209       H  0.80461514  0.78063218  0.79150767     0.12900
C1210       C  0.82468731  0.66991298  0.77349089    -0.22500
H1211       H  0.80516090  0.70024530  0.74704407     0.08600
C1212       C  0.80631641  0.76521426  0.72581427     0.04900
C1213       C  0.79356750  0.77404109  0.71103055    -0.19800
C1214       C  0.75883205  0.77843162  0.70849737    -0.12000
C1215       C  0.73640893  0.77364207  0.72130415     0.13600
C1216       C  0.74937224  0.76484237  0.73601420    -0.22500
C1217       C  0.84368006  0.76096147  0.72799693    -0.05600
H1218       H  0.81094170  0.77748201  0.70140121     0.15200
C1219       C  0.69875554  0.77737773  0.71980087    -0.15700
H1220       H  0.73240396  0.76091785  0.74577406     0.09500
H1221       H  0.85066532  0.66815919  0.77820956     0.07300
H1222       H  0.82423664  0.65636284  0.76210569     0.08500
H1223       H  0.80676111  0.65678230  0.78137018     0.07600
H1224       H  0.75880162  0.81135073  0.76057382     0.02500
H1225       H  0.80184553  0.82204873  0.75568892     0.02900
H1226       H  0.78743373  0.82489224  0.77559278     0.06400
H1227       H  0.85773135  0.76606663  0.71702284     0.05400
H1228       H  0.84928051  0.73477225  0.73164550    -0.00300
H1229       H  0.85288424  0.77870159  0.73712270     0.01100
H1230       H  0.68882266  0.75911829  0.71107021     0.04800
H1231       H  0.69245941  0.80350022  0.71627807     0.06700
H1232       H  0.68561350  0.77235728  0.73102723     0.07600
C1233       C  0.48094846  0.28679110  0.97786645    -0.22000
C1234       C  0.49574501  0.31365931  0.98606772     0.10000
C1235       C  0.51390714  0.33821619  0.97754899     0.10400
C1236       C  0.51163189  0.33859046  0.96109682    -0.16900
C1237       C  0.49516235  0.31262292  0.95277294    -0.27300
C1238       C  0.48236500  0.28485307  0.96145447     0.18700
C1239       C  0.49352271  0.31431331  0.00352430     0.12700
C1240       C  0.53772226  0.36236417  0.98563594    -0.11700
H1241       H  0.52288863  0.35941236  0.95483527     0.12900
C1242       C  0.47207356  0.25186741  0.95405471    -0.22500
H1243       H  0.46922282  0.26646823  0.98436543     0.08600
C1244       C  0.47652623  0.34020028  0.01167767     0.04900
C1245       C  0.47789105  0.34110351  0.02814651    -0.19800
C1246       C  0.49268185  0.31488364  0.03680288    -0.12000
C1247       C  0.50466064  0.28629779  0.02850743     0.13600
C1248       C  0.50660239  0.28723910  0.01208715    -0.22500
C1249       C  0.45488597  0.36543231  0.00316777    -0.05600
H1250       H  0.46736059  0.36257078  0.03420266     0.15200
C1251       C  0.51364095  0.25360243  0.03638994    -0.15700
H1252       H  0.51744370  0.26607206  0.00587073     0.09500
H1253       H  0.44449928  0.24812477  0.95528123     0.07300
H1254       H  0.48516577  0.23089128  0.96007744     0.08500
H1255       H  0.47934588  0.25003457  0.94157550     0.07600
H1256       H  0.55725664  0.34777519  0.99194551     0.02500
H1257       H  0.52465878  0.37857091  0.99419855     0.02900
H1258       H  0.55069197  0.37906467  0.97713072     0.06400
H1259       H  0.44241042  0.38302493  0.01142696     0.05400
H1260       H  0.43492239  0.35183596  0.99656942    -0.00300
H1261       H  0.46960851  0.38072443  0.99481164     0.01100
H1262       H  0.49951917  0.23264103  0.03074603     0.04800
H1263       H  0.50666154  0.25309940  0.04893273     0.06700
H1264       H  0.54100899  0.24880719  0.03513530     0.07600
C1265       C  0.59337626  0.31700580  0.88130188    -0.22000
C1266       C  0.61803895  0.29848197  0.88920308     0.10000
C1267       C  0.61108417  0.28648111  0.90444471     0.10400
C1268       C  0.57935644  0.29276737  0.91123948    -0.16900
C1269       C  0.55438610  0.31056314  0.90310492    -0.27300
C1270       C  0.56178879  0.32326082  0.88798536     0.18700
C1271       C  0.65103684  0.29304002  0.88124615     0.12700
C1272       C  0.63673899  0.26633335  0.91335771    -0.11700
H1273       H  0.57373112  0.28313410  0.92280873     0.12900
C1274       C  0.53746042  0.34414241  0.87857351    -0.22500
H1275       H  0.59895661  0.32696618  0.86977965     0.08600
C1276       C  0.65370917  0.27306846  0.86758896     0.04900
C1277       C  0.68436405  0.27209068  0.85938088    -0.19800
C1278       C  0.71268860  0.29041881  0.86445662    -0.12000
C1279       C  0.71015274  0.30996794  0.87835176     0.13600
C1280       C  0.67947007  0.31073610  0.88656605    -0.22500
C1281       C  0.62425577  0.25267647  0.86165023    -0.05600
H1282       H  0.68610769  0.25723428  0.84875611     0.15200
C1283       C  0.73815004  0.33218205  0.88445424    -0.15700
H1284       H  0.67726826  0.32661479  0.89685108     0.09500
H1285       H  0.53070070  0.33048212  0.86765570     0.07300
H1286       H  0.54956322  0.36845075  0.87541826     0.08500
H1287       H  0.51403006  0.35026675  0.88490909     0.07600
H1288       H  0.65956624  0.28182948  0.91553291     0.02500
H1289       H  0.64373491  0.24364427  0.90649813     0.02900
H1290       H  0.62687166  0.25793143  0.92486741     0.06400
H1291       H  0.63106731  0.23746253  0.85121113     0.05400
H1292       H  0.60329051  0.26950393  0.85825635    -0.00300
H1293       H  0.61552653  0.23519216  0.87093441     0.01100
H1294       H  0.72903601  0.35851845  0.88536202     0.04800
H1295       H  0.76071057  0.33271299  0.87692986     0.06700
H1296       H  0.74575184  0.32351165  0.89628243     0.07600
C1297       C  0.54982739  0.16882974  0.67623042    -0.22000
C1298       C  0.53137060  0.17228085  0.66238782     0.10000
C1299       C  0.54813446  0.17875249  0.64820081     0.10400
C1300       C  0.58327677  0.18152633  0.64814997    -0.16900
C1301       C  0.60217787  0.17844953  0.66200905    -0.27300
C1302       C  0.58505479  0.17193779  0.67629789     0.18700
C1303       C  0.49427905  0.17083894  0.66307545     0.12700
C1304       C  0.52883988  0.18323014  0.63315477    -0.11700
H1305       H  0.59597775  0.18650411  0.63717667     0.12900
C1306       C  0.60320942  0.16904698  0.69174139    -0.22500
H1307       H  0.53645415  0.16418242  0.68706973     0.08600
C1308       C  0.47647080  0.14043227  0.66084920     0.04900
C1309       C  0.44116585  0.14096249  0.66052791    -0.19800
C1310       C  0.42347407  0.17116081  0.66259889    -0.12000
C1311       C  0.44150449  0.20164969  0.66492026     0.13600
C1312       C  0.47672523  0.20093910  0.66527180    -0.22500
C1313       C  0.49477012  0.10758902  0.65879481    -0.05600
H1314       H  0.42728168  0.11770890  0.65873304     0.15200
C1315       C  0.42487451  0.23563501  0.66627002    -0.15700
H1316       H  0.49069603  0.22424104  0.66681795     0.09500
H1317       H  0.58550132  0.16488421  0.70160512     0.07300
H1318       H  0.61734869  0.19264940  0.69421230     0.08500
H1319       H  0.62069709  0.14733435  0.69145236     0.07600
H1320       H  0.51140592  0.20487566  0.63426979     0.02500
H1321       H  0.51407756  0.16011013  0.63052691     0.02900
H1322       H  0.54584131  0.18818390  0.62310590     0.06400
H1323       H  0.47702810  0.08615417  0.65722555     0.05400
H1324       H  0.51044332  0.10255250  0.66929182    -0.00300
H1325       H  0.51125837  0.10885028  0.64833794     0.01100
H1326       H  0.43068813  0.24682794  0.67788482     0.04800
H1327       H  0.39723486  0.23478912  0.66482682     0.06700
H1328       H  0.43483969  0.25257526  0.65702814     0.07600
C1329       C  0.03210482  0.22961154  0.83476073    -0.22000
C1330       C  0.01283828  0.25698488  0.83995103     0.10000
C1331       C  0.02916130  0.28748794  0.84384466     0.10400
C1332       C  0.06415126  0.29026220  0.84204653    -0.16900
C1333       C  0.08355173  0.26340481  0.83632706    -0.27300
C1334       C  0.06721787  0.23244701  0.83271442     0.18700
C1335       C  0.97541466  0.25521445  0.83932186     0.12700
C1336       C  0.00943855  0.31764780  0.84931095    -0.11700
H1337       H  0.07641749  0.31400015  0.84478423     0.12900
C1338       C  0.08511562  0.20262076  0.82570735    -0.22500
H1339       H  0.01941239  0.20638313  0.83153418     0.08600
C1340       C  0.95828742  0.26097739  0.82511362     0.04900
C1341       C  0.92332414  0.26552328  0.82524007    -0.19800
C1342       C  0.90479482  0.26475645  0.83922032    -0.12000
C1343       C  0.92175705  0.25769535  0.85344635     0.13600
C1344       C  0.95686161  0.25264945  0.85325463    -0.22500
C1345       C  0.97711085  0.26399465  0.80987577    -0.05600
H1346       H  0.91042827  0.27095842  0.81434653     0.15200
C1347       C  0.90445128  0.25762438  0.86912370    -0.15700
H1348       H  0.97013192  0.24860441  0.86418083     0.09500
H1349       H  0.07308368  0.19582862  0.81438683     0.07300
H1350       H  0.08304004  0.18080712  0.83376074     0.08500
H1351       H  0.11203762  0.20725434  0.82330137     0.07600
H1352       H  0.99604848  0.31151915  0.86033998     0.02500
H1353       H  0.99079361  0.32488675  0.84024309     0.02900
H1354       H  0.02599659  0.33972879  0.85158179     0.06400
H1355       H  0.95992914  0.26917661  0.79991175     0.05400
H1356       H  0.99052192  0.24012905  0.80736662    -0.00300
H1357       H  0.99564847  0.28494141  0.81061451     0.01100
H1358       H  0.90720839  0.23247520  0.87462166     0.04800
H1359       H  0.87732035  0.26351001  0.86842121     0.06700
H1360       H  0.91637638  0.27679881  0.87684552     0.07600
C1361       C  0.36532476  0.30910707  0.89730451    -0.22000
C1362       C  0.36704062  0.28551472  0.88516089     0.10000
C1363       C  0.39735081  0.26821865  0.88258963     0.10400
C1364       C  0.42592121  0.27652087  0.89152610    -0.16900
C1365       C  0.42554570  0.30254810  0.90286971    -0.27300
C1366       C  0.39365253  0.31718572  0.90648974     0.18700
C1367       C  0.33752743  0.28097506  0.87462182     0.12700
C1368       C  0.39953072  0.24093480  0.87034537    -0.11700
H1369       H  0.44832785  0.26201838  0.88948550     0.12900
C1370       C  0.38778625  0.34158236  0.91978278    -0.22500
H1371       H  0.34163244  0.32170161  0.89953011     0.08600
C1372       C  0.30870246  0.26247577  0.87903404     0.04900
C1373       C  0.28095044  0.26067854  0.86877364    -0.19800
C1374       C  0.28137094  0.27681059  0.85410194    -0.12000
C1375       C  0.31103704  0.29454459  0.84958191     0.13600
C1376       C  0.33845787  0.29639123  0.85993399    -0.22500
C1377       C  0.30736025  0.24457657  0.89453289    -0.05600
H1378       H  0.25865101  0.24691911  0.87234237     0.15200
C1379       C  0.31413191  0.31259501  0.83412481    -0.15700
H1380       H  0.36080197  0.31046426  0.85665856     0.09500
H1381       H  0.36733338  0.33176826  0.92737750     0.07300
H1382       H  0.37996725  0.36633312  0.91500419     0.08500
H1383       H  0.40980516  0.34559694  0.92742721     0.07600
H1384       H  0.39425812  0.25155642  0.85859847     0.02500
H1385       H  0.38083456  0.22085589  0.87293966     0.02900
H1386       H  0.42487812  0.22928038  0.87000171     0.06400
H1387       H  0.28327038  0.23070575  0.89608599     0.08600
H1388       H  0.30982600  0.26307667  0.90422355    -0.00300
H1389       H  0.32826650  0.22617548  0.89527160     0.01100
H1390       H  0.29451291  0.33232221  0.83319721     0.04800
H1391       H  0.31163111  0.29430002  0.82434823     0.06700
H1392       H  0.33894877  0.32526095  0.83282072     0.07600
C1393       C  0.27240783  0.23335779  0.72828309    -0.22000
C1394       C  0.24089698  0.22071938  0.73271541     0.10000
C1395       C  0.22251969  0.20024815  0.72220570     0.10400
C1396       C  0.23651569  0.19221202  0.70756137    -0.16900
C1397       C  0.26847834  0.20420787  0.70324449    -0.27300
C1398       C  0.28631406  0.22576047  0.71362447     0.18700
C1399       C  0.22782219  0.22943765  0.74846028     0.12700
C1400       C  0.18841408  0.18658118  0.72656720    -0.11700
H1401       H  0.22280782  0.17586340  0.69959972     0.12900
C1402       C  0.31939795  0.24231739  0.70952068    -0.22500
H1403       H  0.28614250  0.24958467  0.73629938     0.08600
C1404       C  0.23731769  0.21107911  0.76184648     0.04900
C1405       C  0.22621965  0.22166425  0.77666453    -0.19800
C1406       C  0.20564967  0.25017193  0.77843961    -0.12000
C1407       C  0.19440532  0.26722376  0.76479090     0.13600
C1408       C  0.20636290  0.25708425  0.75005509    -0.22500
C1409       C  0.25954826  0.18058668  0.76047106    -0.05600
H1410       H  0.23463927  0.20821475  0.78696513     0.15200
C1411       C  0.16897278  0.29531147  0.76505889    -0.15700
H1412       H  0.19858238  0.27065875  0.73966910     0.09500
H1413       H  0.33935034  0.23320933  0.71755457     0.07300
H1414       H  0.31705541  0.27002729  0.71089726     0.08500
H1415       H  0.32746766  0.23774127  0.69731715     0.07600
H1416       H  0.17088645  0.20773065  0.72883159     0.02500
H1417       H  0.19049370  0.17094124  0.73727574     0.02900
H1418       H  0.17755327  0.17070930  0.71709288     0.06400
H1419       H  0.26445066  0.16892603  0.77204960     0.05400
H1420       H  0.28409952  0.18785369  0.75526458    -0.00300
H1421       H  0.24722713  0.16143836  0.75287941     0.01100
H1422       H  0.18126268  0.31930338  0.76156932     0.04800
H1423       H  0.15660553  0.29859422  0.77653808     0.06700
H1424       H  0.14849241  0.28954260  0.75659401     0.07600
C1425       C  0.27807092  0.48954512  0.51006332    -0.22000
C1426       C  0.30536199  0.49319417  0.49981604     0.10000
C1427       C  0.33841688  0.49281137  0.50586977     0.10400
C1428       C  0.34343146  0.48860550  0.52202092    -0.16900
C1429       C  0.31628966  0.48416347  0.53231245    -0.27300
C1430       C  0.28304059  0.48526538  0.52624962     0.18700
C1431       C  0.29905620  0.49865999  0.48284565     0.12700
C1432       C  0.36843743  0.49628097  0.49522169    -0.11700
H1433       H  0.36878034  0.48821970  0.52659270     0.12900
C1434       C  0.25220518  0.48336562  0.53645940    -0.22500
H1435       H  0.25268562  0.49049564  0.50541922     0.08600
C1436       C  0.29297015  0.47167973  0.47245513     0.04900
C1437       C  0.29010767  0.47804563  0.45631164    -0.19800
C1438       C  0.29381812  0.51073760  0.45020495    -0.12000
C1439       C  0.29942031  0.53792794  0.46081997     0.13600
C1440       C  0.30157678  0.53139729  0.47694991    -0.22500
C1441       C  0.29083303  0.43605123  0.47837025    -0.05600
H1442       H  0.28609803  0.45714525  0.44834064     0.15200
C1443       C  0.30541721  0.57367280  0.45547849    -0.15700
H1444       H  0.30644057  0.55189283  0.48505725     0.09500
H1445       H  0.23710419  0.46079961  0.53324426     0.07300
H1446       H  0.23665293  0.50619927  0.53463437     0.08500
H1447       H  0.25814928  0.48210686  0.54908166     0.07600
H1448       H  0.36777275  0.52098182  0.48917851     0.02500
H1449       H  0.36807196  0.47581327  0.48634657     0.02900
H1450       H  0.39251255  0.49469961  0.50179454     0.06400
H1451       H  0.28653928  0.41779210  0.46870125     0.05400
H1452       H  0.26970197  0.43369392  0.48678526    -0.00300
H1453       H  0.31470664  0.42928865  0.48433480     0.01100
H1454       H  0.28168753  0.58475281  0.45110047     0.04800
H1455       H  0.32504445  0.57454139  0.44626393     0.06700
H1456       H  0.31415769  0.59005860  0.46523309     0.07600
C1457       C  0.46576394  0.49946465  0.57477086    -0.22000
C1458       C  0.48194666  0.48991060  0.56090884     0.10000
C1459       C  0.46264203  0.47823440  0.54812845     0.10400
C1460       C  0.42743736  0.47594715  0.54962762    -0.16900
C1461       C  0.41124936  0.48507267  0.56360809    -0.27300
C1462       C  0.43074109  0.49694634  0.57635231     0.18700
C1463       C  0.51927399  0.49073827  0.56066290     0.12700
C1464       C  0.47925323  0.46768754  0.53308351    -0.11700
H1465       H  0.41271147  0.46557823  0.54010325     0.12900
C1466       C  0.41567593  0.50630017  0.59193589    -0.22500
H1467       H  0.48074760  0.50817307  0.58460919     0.08600
C1468       C  0.53710446  0.52099350  0.55839052     0.04900
C1469       C  0.57195302  0.52177840  0.56104747    -0.19800
C1470       C  0.58957825  0.49331582  0.56651462    -0.12000
C1471       C  0.57158014  0.46239766  0.56795576     0.13600
C1472       C  0.53682662  0.46161549  0.56482497    -0.22500
C1473       C  0.51916965  0.55263636  0.55351639    -0.05600
H1474       H  0.58539532  0.54526846  0.55928539     0.15200
C1475       C  0.58676513  0.43000595  0.57358388    -0.15700
H1476       H  0.52285961  0.43838002  0.56652895     0.09500
H1477       H  0.42181926  0.53297805  0.59467344     0.07300
H1478       H  0.42646358  0.49001640  0.60120525     0.08500
H1479       H  0.38796614  0.50340674  0.59226837     0.07600
H1480       H  0.49672548  0.44649278  0.53533128     0.02500
H1481       H  0.49363507  0.48920564  0.52814843     0.02900
H1482       H  0.46050102  0.45933221  0.52422201     0.06400
H1483       H  0.53686351  0.57415986  0.55216742     0.05400
H1484       H  0.50020943  0.55961231  0.56247083    -0.00300
H1485       H  0.50630217  0.54842085  0.54213610     0.01100
H1486       H  0.57297957  0.42099205  0.58407958     0.04800
H1487       H  0.61320420  0.43248875  0.57690818     0.06700
H1488       H  0.58478621  0.41063063  0.56423571     0.07600
C1489       C  0.32117390  0.35096232  0.58493979    -0.22000
C1490       C  0.30400119  0.35193007  0.59919643     0.10000
C1491       C  0.29060315  0.38267068  0.60442611     0.10400
C1492       C  0.29578247  0.41207510  0.59559150    -0.16900
C1493       C  0.31526109  0.41222776  0.58172619    -0.27300
C1494       C  0.32683485  0.38031364  0.57604387     0.18700
C1495       C  0.30384332  0.32139522  0.60930066     0.12700
C1496       C  0.27162626  0.38462733  0.61966597    -0.11700
H1497       H  0.28480603  0.43479100  0.60006055     0.12900
C1498       C  0.34556844  0.37616759  0.56074123    -0.22500
H1499       H  0.33114505  0.32704246  0.58098965     0.08600
C1500       C  0.27824933  0.29670254  0.60862648     0.04900
C1501       C  0.28003577  0.26831552  0.61850518    -0.19800
C1502       C  0.30700194  0.26384857  0.62903471    -0.12000
C1503       C  0.33261068  0.28912490  0.62963659     0.13600
C1504       C  0.33052857  0.31730277  0.61977824    -0.22500
C1505       C  0.24926084  0.30024842  0.59740381    -0.05600
H1506       H  0.26031595  0.24943132  0.61790141     0.15200
C1507       C  0.36254731  0.28708092  0.64048542    -0.15700
H1508       H  0.35003165  0.33647394  0.62018800     0.09500
H1509       H  0.32974546  0.38418709  0.55077544     0.07300
H1510       H  0.35218043  0.34943637  0.55850603     0.08500
H1511       H  0.36955370  0.39035999  0.56071842     0.07600
H1512       H  0.28818601  0.37670377  0.62945126     0.02500
H1513       H  0.24928050  0.36780700  0.61921413     0.02900
H1514       H  0.26278989  0.41057607  0.62217743     0.06400
H1515       H  0.23136431  0.27878408  0.59831494     0.05400
H1516       H  0.25888209  0.30118843  0.58522050    -0.00300
H1517       H  0.23529721  0.32377399  0.59993327     0.01100
H1518       H  0.37959923  0.30915726  0.63926047     0.04800
H1519       H  0.37755709  0.26430539  0.63775015     0.06700
H1520       H  0.35396293  0.28648672  0.65283982     0.07600
C1521       C  0.53430297  0.66362892  0.98035086    -0.22000
C1522       C  0.50078249  0.66833896  0.98472138     0.10000
C1523       C  0.47610613  0.67330338  0.97310980     0.10400
C1524       C  0.48559015  0.67324373  0.95728191    -0.16900
C1525       C  0.51918099  0.66818405  0.95273817    -0.27300
C1526       C  0.54392977  0.66317641  0.96455550     0.18700
C1527       C  0.49224281  0.66757024  0.00158559     0.12700
C1528       C  0.43968777  0.67786168  0.97743111    -0.11700
H1529       H  0.46651441  0.67674808  0.94838672     0.12900
C1530       C  0.58011157  0.65526586  0.96090421    -0.22500
H1531       H  0.55296246  0.65965920  0.98942667     0.08600
C1532       C  0.48941577  0.63691621  0.00981260     0.04900
C1533       C  0.48221786  0.63754680  0.02588135    -0.19800
C1534       C  0.47757915  0.66808667  0.03388230    -0.12000
C1535       C  0.48120693  0.69883399  0.02566754     0.13600
C1536       C  0.48819680  0.69811107  0.00957836    -0.22500
C1537       C  0.49341112  0.60358611  0.00157926    -0.05600
H1538       H  0.47954774  0.61402377  0.03217403     0.15200
C1539       C  0.47915672  0.73279671  0.03350855    -0.15700
H1540       H  0.49105368  0.72158912  0.00324622     0.09500
H1541       H  0.59469920  0.64919651  0.97162438     0.07300
H1542       H  0.59276700  0.67710671  0.95541980     0.08500
H1543       H  0.58124315  0.63297770  0.95318860     0.07600
H1544       H  0.43686072  0.70062248  0.98486701     0.02500
H1545       H  0.43064217  0.65547425  0.98398563     0.02900
H1546       H  0.42352765  0.68094464  0.96691900     0.06400
H1547       H  0.48971064  0.58206370  0.00969139     0.05400
H1548       H  0.51906644  0.60168593  0.99654544    -0.00300
H1549       H  0.47454791  0.60138622  0.99202959     0.01100
H1550       H  0.50267315  0.74715629  0.03121160     0.04800
H1551       H  0.47631706  0.73122110  0.04637256     0.06700
H1552       H  0.45754633  0.74701419  0.02864793     0.07600
C1553       C  0.48392069  0.45672798  0.93038833    -0.22000
C1554       C  0.50646440  0.47211360  0.91997269     0.10000
C1555       C  0.52521447  0.45185831  0.90954279     0.10400
C1556       C  0.52049015  0.41676995  0.90956616    -0.16900
C1557       C  0.49736758  0.40151035  0.91970301    -0.27300
C1558       C  0.47915217  0.42164740  0.93040284     0.18700
C1559       C  0.51091013  0.50932446  0.92038437     0.12700
C1560       C  0.54957108  0.46733157  0.89809796    -0.11700
H1561       H  0.53435501  0.40123110  0.90140100     0.12900
C1562       C  0.45474727  0.40695462  0.94205634    -0.22500
H1563       H  0.47001231  0.47219385  0.93858841     0.08600
C1564       C  0.48659608  0.53155475  0.91424059     0.04900
C1565       C  0.49341115  0.56637037  0.91395542    -0.19800
C1566       C  0.52406200  0.57948878  0.91955580    -0.12000
C1567       C  0.54778515  0.55709281  0.92626078     0.13600
C1568       C  0.54081995  0.52246486  0.92657085    -0.22500
C1569       C  0.45388449  0.51850782  0.90763997    -0.05600
H1570       H  0.47500788  0.58339491  0.90900122     0.15200
C1571       C  0.58034237  0.56838405  0.93359011    -0.15700
H1572       H  0.55911985  0.50539797  0.93159466     0.09500
H1573       H  0.42915929  0.41696472  0.93978796     0.07300
H1574       H  0.46260264  0.41416635  0.95408453     0.08500
H1575       H  0.45345710  0.37911777  0.94161657     0.07600
H1576       H  0.57016288  0.48040026  0.90448199     0.02500
H1577       H  0.53620649  0.48570852  0.89056604     0.02900
H1578       H  0.56115864  0.44802008  0.89040654     0.06400
H1579       H  0.43806948  0.53919411  0.90296867     0.05400
H1580       H  0.43935323  0.50547380  0.91692567    -0.00300
H1581       H  0.45900413  0.50056290  0.89795877     0.01100
H1582       H  0.58113671  0.56022219  0.94600779     0.04800
H1583       H  0.58351134  0.59581609  0.93344758     0.06700
H1584       H  0.60181394  0.55696147  0.92722788     0.07600
C1585       C  0.67944456  0.69700134  0.86244034    -0.22000
C1586       C  0.67891059  0.71209549  0.87722656     0.10000
C1587       C  0.70785231  0.72929594  0.88267213     0.10400
C1588       C  0.73716122  0.72971281  0.87339432    -0.16900
C1589       C  0.73810251  0.71367187  0.85869108    -0.27300
C1590       C  0.70831266  0.69771257  0.85303537     0.18700
C1591       C  0.64869651  0.70631993  0.88715301     0.12700
C1592       C  0.70773523  0.74733535  0.89819331    -0.11700
H1593       H  0.75957432  0.74224280  0.87775585     0.12900
C1594       C  0.70663329  0.67996923  0.83741286    -0.22500
H1595       H  0.65723827  0.68353963  0.85843429     0.08600
C1596       C  0.61696353  0.71970471  0.88334721     0.04900
C1597       C  0.58831474  0.70898905  0.89165922    -0.19800
C1598       C  0.59012758  0.68448067  0.90365144    -0.12000
C1599       C  0.62298297  0.67374691  0.90827932     0.13600
C1600       C  0.65130797  0.68404801  0.89971190    -0.22500
C1601       C  0.61329827  0.74541824  0.87050226    -0.05600
H1602       H  0.56473002  0.72038776  0.88856263     0.15200
C1603       C  0.63004593  0.65119442  0.92203795    -0.15700
H1604       H  0.67582380  0.67399454  0.90271330     0.09500
H1605       H  0.71130017  0.69823603  0.82783515     0.07300
H1606       H  0.68153029  0.66844785  0.83524013     0.08500
H1607       H  0.72545103  0.65939451  0.83700110     0.07600
H1608       H  0.70342465  0.72918054  0.90783606     0.02500
H1609       H  0.68743553  0.76646899  0.89828436     0.02900
H1610       H  0.73202917  0.76040655  0.90045989     0.06400
H1611       H  0.58693365  0.75425998  0.86934643     0.05400
H1612       H  0.62082794  0.73442268  0.85909926    -0.00300
H1613       H  0.62949012  0.76759601  0.87310007     0.01100
H1614       H  0.64057719  0.62692742  0.91786463     0.04800
H1615       H  0.60781562  0.64594026  0.92920712     0.06700
H1616       H  0.64868966  0.66356366  0.92988247     0.07600
C1617       C  0.48550235  0.81389903  0.64976732    -0.22000
C1618       C  0.50418493  0.78688290  0.65557597     0.10000
C1619       C  0.48752523  0.75769423  0.66090912     0.10400
C1620       C  0.45224493  0.75628849  0.66042252    -0.16900
C1621       C  0.43326407  0.78334532  0.65461660    -0.27300
C1622       C  0.45022978  0.81259786  0.64919728     0.18700
C1623       C  0.54118890  0.79032758  0.65650340     0.12700
C1624       C  0.50703328  0.72808619  0.66707007    -0.11700
H1625       H  0.43942062  0.73390946  0.66460393     0.12900
C1626       C  0.43155475  0.84310350  0.64338252    -0.22500
H1627       H  0.49868376  0.83629903  0.64584240     0.08600
C1628       C  0.56183260  0.78492329  0.64336242     0.04900
C1629       C  0.59678847  0.78886072  0.64485357    -0.19800
C1630       C  0.61163077  0.79790662  0.65923166    -0.12000
C1631       C  0.59059615  0.80362456  0.67239244     0.13600
C1632       C  0.55564470  0.79980053  0.67078983    -0.22500
C1633       C  0.54694401  0.77463983  0.62784341    -0.05600
H1634       H  0.61261483  0.78436806  0.63475060     0.15200
C1635       C  0.60435722  0.81437634  0.68809567    -0.15700
H1636       H  0.53935718  0.80417805  0.68075149     0.09500
H1637       H  0.41730691  0.83668812  0.63259868     0.07300
H1638       H  0.44894819  0.86413170  0.64045280     0.08500
H1639       H  0.41402854  0.85223381  0.65255636     0.07600
H1640       H  0.52198236  0.73583461  0.67746211     0.02500
H1641       H  0.52430573  0.71862252  0.65786858     0.02900
H1642       H  0.49014713  0.70708167  0.67059813     0.06400
H1643       H  0.56665705  0.77102287  0.61879893     0.05400
H1644       H  0.52944459  0.79439356  0.62365248    -0.00300
H1645       H  0.53293876  0.75055795  0.62915919     0.01100
H1646       H  0.58396484  0.81935378  0.69666247     0.04800
H1647       H  0.61924871  0.83793611  0.68681793     0.06700
H1648       H  0.62034025  0.79417773  0.69306098     0.07600
C1649       C  0.27375785  0.93747703  0.63979912    -0.22000
C1650       C  0.29161354  0.95864590  0.65007563     0.10000
C1651       C  0.31236030  0.94420151  0.66161714     0.10400
C1652       C  0.31559563  0.90908067  0.66235821    -0.16900
C1653       C  0.29838841  0.88746724  0.65194095    -0.27300
C1654       C  0.27677436  0.90205144  0.64058505     0.18700
C1655       C  0.28924384  0.99594811  0.64851546     0.12700
C1656       C  0.33122362  0.96593203  0.67319415    -0.11700
H1657       H  0.33192754  0.89848218  0.67121918     0.12900
C1658       C  0.25741364  0.88076582  0.62905361    -0.22500
H1659       H  0.25773391  0.94878664  0.63100356     0.08600
C1660       C  0.31314037  0.01441065  0.63978628     0.04900
C1661       C  0.31292929  0.04983507  0.64038121    -0.19800
C1662       C  0.28951024  0.06736148  0.64960722    -0.12000
C1663       C  0.26411363  0.04877629  0.65749010     0.13600
C1664       C  0.26458615  0.01334063  0.65697975    -0.22500
C1665       C  0.33951468  0.99663670  0.63022809    -0.05600
H1666       H  0.33232817  0.06383982  0.63426982     0.15200
C1667       C  0.23582343  0.06531493  0.66632941    -0.15700
H1668       H  0.24593153  0.99914250  0.66348828     0.09500
H1669       H  0.24234042  0.89641899  0.62090227     0.07300
H1670       H  0.23975187  0.86390975  0.63538626     0.08500
H1671       H  0.27510827  0.86551993  0.62194997     0.07600
H1672       H  0.31312449  0.98113117  0.68009475     0.02500
H1673       H  0.34869491  0.98310606  0.66694084     0.02900
H1674       H  0.34628194  0.95062927  0.68149098     0.06400
H1675       H  0.35631347  0.01473101  0.62411101     0.05400
H1676       H  0.32712858  0.98049165  0.62127782    -0.00300
H1677       H  0.35531927  0.98065399  0.63790486     0.01100
H1678       H  0.21136576  0.05575656  0.66180094     0.04800
H1679       H  0.23546060  0.09303895  0.66499812     0.06700
H1680       H  0.23778343  0.05906005  0.67895358     0.07600
C1681       C  0.30712827  0.63048327  0.62308245    -0.22000
C1682       C  0.30531563  0.63433033  0.60682280     0.10000
C1683       C  0.30062592  0.66680963  0.60053622     0.10400
C1684       C  0.30001877  0.69497500  0.61062474    -0.16900
C1685       C  0.30324378  0.69146665  0.62696840    -0.27300
C1686       C  0.30601237  0.65841332  0.63324697     0.18700
C1687       C  0.30980629  0.60396807  0.59672195     0.12700
C1688       C  0.29634561  0.67166037  0.58317814    -0.11700
H1689       H  0.29742937  0.71993438  0.60567586     0.12900
C1690       C  0.30920736  0.65208963  0.65057776    -0.22500
H1691       H  0.31030795  0.60539086  0.62782452     0.08600
C1692       C  0.34190203  0.59433868  0.59123298     0.04900
C1693       C  0.34550751  0.56404888  0.58280576    -0.19800
C1694       C  0.31797759  0.54248642  0.58013035    -0.12000
C1695       C  0.28550545  0.55306126  0.58498591     0.13600
C1696       C  0.28195749  0.58342818  0.59334307    -0.22500
C1697       C  0.37258127  0.61541674  0.59479823    -0.05600
H1698       H  0.37026652  0.55644485  0.57892212     0.15200
C1699       C  0.25391052  0.53344269  0.58131162    -0.15700
H1700       H  0.25725849  0.59101725  0.59737594     0.09500
H1701       H  0.31182720  0.62485776  0.65324577     0.07300
H1702       H  0.28635292  0.66117838  0.65670234     0.08500
H1703       H  0.33187202  0.66514216  0.65523965     0.07600
H1704       H  0.27396514  0.65731015  0.57906711     0.02500
H1705       H  0.31892634  0.66247913  0.57688272     0.02900
H1706       H  0.29267396  0.69858184  0.58014851     0.06400
H1707       H  0.39577241  0.60415584  0.58982007     0.05400
H1708       H  0.37594059  0.61756639  0.60766263    -0.00300
H1709       H  0.36962424  0.64097471  0.58977737     0.01100
H1710       H  0.24208887  0.52472936  0.59235810     0.04800
H1711       H  0.25846353  0.51134929  0.57371947     0.06700
H1712       H  0.23591959  0.54992610  0.57501624     0.07600
C1713       C  0.20758325  0.44994820  0.84528226    -0.22000
C1714       C  0.19572531  0.46885379  0.83260726     0.10000
C1715       C  0.18198025  0.45217510  0.81948406     0.10400
C1716       C  0.18083943  0.41690751  0.81924123    -0.16900
C1717       C  0.19315585  0.39769661  0.83177817    -0.27300
C1718       C  0.20692445  0.41455517  0.84502473     0.18700
C1719       C  0.19975150  0.50600112  0.83288441     0.12700
C1720       C  0.16820968  0.47157640  0.80577628    -0.11700
H1721       H  0.17015322  0.40420334  0.80913790     0.12900
C1722       C  0.22285750  0.39675196  0.85873218    -0.22500
H1723       H  0.21854343  0.46295346  0.85524507     0.08600
C1724       C  0.17879961  0.52682122  0.84197222     0.04900
C1725       C  0.18354414  0.56189797  0.84158302    -0.19800
C1726       C  0.20870286  0.57680773  0.83224199    -0.12000
C1727       C  0.22975255  0.55555931  0.82312957     0.13600
C1728       C  0.22502730  0.52052300  0.82368779    -0.22500
C1729       C  0.15110938  0.51203915  0.85186617    -0.05600
H1730       H  0.16723472  0.57774468  0.84855652     0.15200
C1731       C  0.25744967  0.56912257  0.81283576    -0.15700
H1732       H  0.24107457  0.50417846  0.81681339     0.09500
H1733       H  0.20794883  0.40172234  0.86946695     0.07300
H1734       H  0.24877429  0.40662325  0.86053616     0.08500
H1735       H  0.22526513  0.36926862  0.85716729     0.07600
H1736       H  0.18852362  0.48666095  0.80026011     0.02500
H1737       H  0.14794445  0.48866603  0.80982145     0.02900
H1738       H  0.15750185  0.45459093  0.79668627     0.06400
H1739       H  0.13653498  0.53188135  0.85799680     0.05400
H1740       H  0.16198219  0.49511623  0.86085184    -0.00300
H1741       H  0.13347671  0.49744006  0.84435232     0.01100
H1742       H  0.27157652  0.54864145  0.80693027     0.04800
H1743       H  0.27572845  0.58375342  0.81998949     0.06700
H1744       H  0.24661744  0.58528679  0.80353686     0.07600
C1745       C  0.99565694  0.69819963  0.84890342    -0.22000
C1746       C  0.00867539  0.73051032  0.84636396     0.10000
C1747       C  0.98630616  0.75740915  0.84374996     0.10400
C1748       C  0.95141304  0.75101832  0.84300240    -0.16900
C1749       C  0.93822593  0.71821091  0.84469823    -0.27300
C1750       C  0.96094737  0.69153718  0.84812031     0.18700
C1751       C  0.04581303  0.73402541  0.84459464     0.12700
C1752       C  0.99933012  0.79275776  0.84165693    -0.11700
H1753       H  0.93447800  0.77169487  0.84060705     0.12900
C1754       C  0.94948482  0.65564290  0.85054870    -0.22500
H1755       H  0.01307361  0.67767989  0.85087085     0.08600
C1756       C  0.06805231  0.73151586  0.85744067     0.04900
C1757       C  0.10282082  0.72764483  0.85472687    -0.19800
C1758       C  0.11572710  0.72555248  0.83942907    -0.12000
C1759       C  0.09358065  0.73079234  0.82663326     0.13600
C1760       C  0.05900122  0.73496721  0.82940969    -0.22500
C1761       C  0.05493808  0.73223156  0.87395918    -0.05600
H1762       H  0.11967105  0.72427486  0.86457706     0.15200
C1763       C  0.10604621  0.73195474  0.80998056    -0.15700
H1764       H  0.04183492  0.73721459  0.81959769     0.09500
H1765       H  0.97077037  0.63873404  0.85348840     0.07300
H1766       H  0.93775054  0.64570355  0.83967607     0.08500
H1767       H  0.93133177  0.65442887  0.86039805     0.07600
H1768       H  0.01594718  0.79404595  0.83124750     0.02500
H1769       H  0.01384762  0.80044602  0.85219616     0.02900
H1770       H  0.97852605  0.81100050  0.83998456     0.06400
H1771       H  0.07564961  0.73059451  0.88266188     0.05400
H1772       H  0.03758628  0.71068653  0.87592180    -0.00300
H1773       H  0.04119049  0.75612451  0.87600825     0.01100
H1774       H  0.11539636  0.70688668  0.80631563     0.04800
H1775       H  0.12651191  0.75094562  0.80893642     0.06700
H1776       H  0.08571751  0.73906286  0.80170016     0.07600
C1777       C  0.42194938  0.66420544  0.88228796    -0.22000
C1778       C  0.39840102  0.68383003  0.89039673     0.10000
C1779       C  0.40614108  0.69481621  0.90575728     0.10400
C1780       C  0.43776903  0.68708481  0.91231658    -0.16900
C1781       C  0.46173520  0.66850069  0.90392735    -0.27300
C1782       C  0.45335470  0.65629683  0.88882755     0.18700
C1783       C  0.36580315  0.69173339  0.88248061     0.12700
C1784       C  0.38158109  0.71557960  0.91503867    -0.11700
H1785       H  0.44423905  0.69655572  0.92382969     0.12900
C1786       C  0.47669865  0.63453695  0.87930618    -0.22500
H1787       H  0.41573477  0.65493157  0.87068802     0.08600
C1788       C  0.36434942  0.71246098  0.86906879     0.04900
C1789       C  0.33401835  0.71498888  0.86059015    -0.19800
C1790       C  0.30459770  0.69794382  0.86534481    -0.12000
C1791       C  0.30559587  0.67940027  0.87957641     0.13600
C1792       C  0.33623449  0.67613999  0.88773509    -0.22500
C1793       C  0.39477406  0.73211333  0.86374795    -0.05600
H1794       H  0.33353003  0.72991873  0.84999262     0.15200
C1795       C  0.27494608  0.66203464  0.88616111    -0.15700
H1796       H  0.33739212  0.66036172  0.89805419     0.09500
H1797       H  0.48365144  0.64787026  0.86836193     0.07300
H1798       H  0.46371225  0.61060515  0.87622722     0.08500
H1799       H  0.50008392  0.62778513  0.88559591     0.07600
H1800       H  0.35825110  0.70089602  0.91720017     0.02500
H1801       H  0.37526647  0.73882331  0.90848058     0.02900
H1802       H  0.39211279  0.72307451  0.92658542     0.06400
H1803       H  0.38900694  0.74811647  0.85345126     0.05400
H1804       H  0.41535525  0.71476431  0.86040524    -0.00300
H1805       H  0.40358296  0.74880342  0.87337413     0.01100
H1806       H  0.26577847  0.64247534  0.87787585     0.04800
H1807       H  0.25489084  0.68082501  0.88839032     0.06700
H1808       H  0.28044279  0.64935592  0.89744864     0.07600
C1809       C  0.24385845  0.76146975  0.76310251    -0.22000
C1810       C  0.26065559  0.73830676  0.75350156     0.10000
C1811       C  0.26826835  0.70608680  0.75945654     0.10400
C1812       C  0.25985056  0.69816107  0.77498192    -0.16900
C1813       C  0.24352199  0.72143069  0.78480807    -0.27300
C1814       C  0.23473804  0.75334893  0.77858363     0.18700
C1815       C  0.27055672  0.74820676  0.73731681     0.12700
C1816       C  0.28467723  0.67972270  0.74932902    -0.11700
H1817       H  0.26620938  0.67348224  0.77946632     0.12900
C1818       C  0.21489813  0.77865280  0.78790194    -0.22500
H1819       H  0.23783418  0.78607124  0.75842477     0.08600
C1820       C  0.24680252  0.75126518  0.72511161     0.04900
C1821       C  0.25791796  0.75834168  0.70982440    -0.19800
C1822       C  0.29234085  0.76225452  0.70631895    -0.12000
C1823       C  0.31604202  0.76011601  0.71878238     0.13600
C1824       C  0.30472082  0.75332543  0.73404486    -0.22500
C1825       C  0.20978963  0.74618914  0.72811910    -0.05600
H1826       H  0.23952390  0.76017137  0.70049680     0.15200
C1827       C  0.35332733  0.76501126  0.71632473    -0.15700
H1828       H  0.32275181  0.75137893  0.74353176     0.09500
H1829       H  0.20877515  0.80132347  0.78087443     0.07300
H1830       H  0.22967604  0.78712976  0.79821668     0.08500
H1831       H  0.19077878  0.76718002  0.79178277     0.07600
H1832       H  0.31004262  0.68832141  0.74564280     0.02500
H1833       H  0.26894398  0.67500424  0.73879399     0.02900
H1834       H  0.28767480  0.65547513  0.75562530     0.06400
H1835       H  0.19472314  0.74855331  0.71722280     0.05400
H1836       H  0.20066971  0.76539688  0.73653360    -0.00300
H1837       H  0.20536928  0.72068040  0.73302189     0.01100
H1838       H  0.36758340  0.76370104  0.72749736     0.04800
H1839       H  0.35821154  0.79014894  0.71111291     0.06700
H1840       H  0.36324076  0.74492020  0.70857210     0.07600
loop_ 
_geom_bond_atom_site_label_1 
_geom_bond_atom_site_label_2 
_geom_bond_distance 
_geom_bond_site_symmetry_2 
_ccdc_geom_bond_type 
O1            C4   1.266       .  A
O1           Cd6   2.458       .  S
C2           O11   1.265       .  A
C2            O7   1.262       .  A
C2         C1726   1.493       .  S
O3            C9   1.266       .  A
O3           Cd6   2.521       .  S
C4           O12   1.269       .  A
C4         C1813   1.496       .  S
C5           O10   1.268       .  A
C5            O8   1.262       .  A
C5         C1758   1.491       .  S
Cd6          O13   2.490       .  S
Cd6          O12   2.498       .  S
Cd6          O11   2.490       .  S
Cd6           O7   2.462       .  S
Cd6          O10   2.535       .  S
Cd6           O8   2.454       .  S
C9           O13   1.263       .  A
C9         C1790   1.502       .  S
O14          C17   1.264       .  A
O14         Cd19   2.454       .  S
C15          O24   1.264       .  A
C15          O20   1.265       .  A
C15        C1621   1.483       .  S
O16          C22   1.266       .  A
O16         Cd19   2.527       .  S
C17          O25   1.270       .  A
C17        C1822   1.498       .  S
C18          O23   1.270       .  A
C18          O21   1.262       .  A
C18        C1653   1.500       .  S
Cd19         O26   2.488       .  S
Cd19         O25   2.504       .  S
Cd19         O24   2.457       .  S
Cd19         O20   2.472       .  S
Cd19         O23   2.548       .  S
Cd19         O21   2.436       .  S
C22          O26   1.263       .  A
C22        C1685   1.501       .  S
C27          C28   1.539       .  S
C27          C33   1.548       .  S
C27          C31   1.548       .  S
C27        C1598   1.551       .  S
C28          H35   1.083       .  S
C28          C29   1.368       .  D
C29          C30   1.543       .  S
C29        C1525   1.494       .  S
C30          C34   1.539       .  S
C30          C32   1.535       .  S
C30          H36   1.111       .  S
C31          H37   1.086       .  S
C31          C32   1.369       .  D
C32        C1566   1.492       .  S
C33          H38   1.081       .  S
C33          C34   1.365       .  D
C34        C1781   1.489       .  S
C39          C40   1.541       .  S
C39          C45   1.554       .  S
C39          C43   1.536       .  S
C39        C1493   1.554       .  S
C40          H47   1.085       .  S
C40          C41   1.369       .  D
C41          C42   1.541       .  S
C41        C1429   1.492       .  S
C42          C46   1.543       .  S
C42          C44   1.539       .  S
C42          H48   1.111       .  S
C43          H49   1.086       .  S
C43          C44   1.360       .  D
C44        C1461   1.482       .  S
C45          H50   1.080       .  S
C45          C46   1.370       .  D
C46        C1694   1.497       .  S
O51          C54   1.266       .  A
O51         Cd56   2.446       .  S
C52          O61   1.268       .  A
C52          O57   1.264       .  A
C52        C1406   1.490       .  S
O53          C59   1.269       .  A
O53         Cd56   2.522       .  S
C54          O62   1.266       .  A
C54        C1717   1.482       .  S
C55          O60   1.269       .  A
C55          O58   1.263       .  A
C55        C1333   1.488       .  S
Cd56         O63   2.443       .  S
Cd56         O62   2.473       .  S
Cd56         O61   2.497       .  S
Cd56         O57   2.461       .  S
Cd56         O60   2.527       .  S
Cd56         O58   2.448       .  S
C59          O63   1.261       .  A
C59        C1374   1.497       .  S
O64          C67   1.264       .  A
O64         Cd69   2.452       .  S
C65          O74   1.269       .  A
C65          O70   1.265       .  A
C65        C1397   1.479       .  S
O66          C72   1.271       .  A
O66         Cd69   2.552       .  S
C67          O75   1.265       .  A
C67        C1310   1.472       .  S
C68          O73   1.267       .  A
C68          O71   1.263       .  A
C68        C1662   1.489       .  S
Cd69         O76   2.433       .  S
Cd69         O75   2.465       .  S
Cd69         O74   2.487       .  S
Cd69         O70   2.440       .  S
Cd69         O73   2.513       .  S
Cd69         O71   2.477       .  S
C72          O76   1.258       .  A
C72        C1502   1.502       .  S
C77          C78   1.535       .  S
C77          C83   1.550       .  S
C77          C81   1.540       .  S
C77        C1365   1.548       .  S
C78          H85   1.085       .  S
C78          C79   1.373       .  D
C79          C80   1.552       .  S
C79        C1237   1.507       .  S
C80          C84   1.538       .  S
C80          C82   1.539       .  S
C80          H86   1.109       .  S
C81          H87   1.086       .  S
C81          C82   1.363       .  D
C82        C1557   1.480       .  S
C83          H88   1.082       .  S
C83          C84   1.365       .  D
C84        C1269   1.491       .  S
O89          C92   1.264       .  A
O89         Cd94   2.440       .  S
C90          O99   1.269       .  A
C90          O95   1.263       .  A
C90        C1205   1.493       .  S
O91          C97   1.269       .  A
O91         Cd94   2.531       .  S
C92         O100   1.267       .  A
C92        C1173   1.484       .  S
C93          O98   1.268       .  A
C93          O96   1.260       .  A
C93        C1749   1.499       .  S
Cd94        O101   2.428       .  S
Cd94        O100   2.462       .  S
Cd94         O99   2.488       .  S
Cd94         O95   2.438       .  S
Cd94         O98   2.530       .  S
Cd94         O96   2.446       .  S
C97         O101   1.259       .  A
C97        C1589   1.494       .  S
O102        C105   1.263       .  A
O102       Cd107   2.439       .  S
C103        O112   1.270       .  A
C103        O108   1.261       .  A
C103       C1214   1.494       .  S
O104        C110   1.268       .  A
O104       Cd107   2.508       .  S
C105        O113   1.267       .  A
C105       C1630   1.485       .  S
C106        O111   1.270       .  A
C106        O109   1.260       .  A
C106       C1109   1.496       .  S
Cd107       O114   2.458       .  S
Cd107       O113   2.468       .  S
Cd107       O112   2.503       .  S
Cd107       O108   2.425       .  S
Cd107       O111   2.552       .  S
Cd107       O109   2.428       .  S
C110        O114   1.264       .  A
C110       C1150   1.500       .  S
C115        C116   1.541       .  S
C115        C121   1.535       .  S
C115        C119   1.551       .  S
C115       C1141   1.555       .  S
C116        H123   1.086       .  S
C116        C117   1.372       .  D
C117        C118   1.544       .  S
C117       C1045   1.505       .  S
C118        C122   1.555       .  S
C118        C120   1.541       .  S
C118        H124   1.107       .  S
C119        H125   1.080       .  S
C119        C120   1.369       .  D
C120       C1470   1.505       .  S
C121        H126   1.086       .  S
C121        C122   1.364       .  D
C122       C1086   1.491       .  S
O127        C130   1.261       .  A
O127       Cd132   2.425       .  S
C128        O137   1.265       .  A
C128        O133   1.264       .  A
C128       C1182   1.483       .  S
O129        C135   1.266       .  A
O129       Cd132   2.512       .  S
C130        O138   1.270       .  A
C130       C1022   1.494       .  S
C131        O136   1.269       .  A
C131        O134   1.262       .  A
C131       C1342   1.484       .  S
Cd132       O139   2.477       .  S
Cd132       O138   2.510       .  S
Cd132       O137   2.458       .  S
Cd132       O133   2.447       .  S
Cd132       O136   2.532       .  S
Cd132       O134   2.429       .  S
C135        O139   1.263       .  A
C135       C1278   1.489       .  S
O140        C143   1.265       .  A
O140       Cd145   2.447       .  S
C141        O150   1.266       .  A
C141        O146   1.264       .  A
C141       C1301   1.487       .  S
O142        C148   1.268       .  A
O142       Cd145   2.537       .  S
C143        O151   1.268       .  A
C143       C1013   1.492       .  S
C144        O149   1.266       .  A
C144        O147   1.264       .  A
C144       C1118   1.499       .  S
Cd145       O152   2.459       .  S
Cd145       O151   2.491       .  S
Cd145       O150   2.455       .  S
Cd145       O146   2.454       .  S
Cd145       O149   2.513       .  S
Cd145       O147   2.465       .  S
C148        O152   1.260       .  A
C148       C1077   1.494       .  S
O153        C156   1.264       .  A
O153       Cd158   2.443       .  S
C154        O163   1.269       .  A
C154        O159   1.263       .  A
C154        C990   1.496       .  S
O155        C161   1.268       .  A
O155       Cd158   2.521       .  S
C156        O164   1.266       .  A
C156        C894   1.484       .  S
C157        O162   1.269       .  A
C157        O160   1.263       .  A
C157        C917   1.492       .  S
Cd158       O165   2.467       .  S
Cd158       O164   2.463       .  S
Cd158       O163   2.501       .  S
Cd158       O159   2.452       .  S
Cd158       O162   2.534       .  S
Cd158       O160   2.450       .  S
C161        O165   1.263       .  A
C161        C949   1.500       .  S
O166        C169   1.263       .  A
O166       Cd171   2.452       .  S
C167        O176   1.265       .  A
C167        O172   1.267       .  A
C167        C798   1.477       .  S
O168        C174   1.269       .  A
O168       Cd171   2.528       .  S
C169        O177   1.268       .  A
C169        C981   1.495       .  S
C170        O175   1.269       .  A
C170        O173   1.261       .  A
C170        C853   1.501       .  S
Cd171       O178   2.433       .  S
Cd171       O177   2.493       .  S
Cd171       O176   2.439       .  S
Cd171       O172   2.457       .  S
Cd171       O175   2.531       .  S
Cd171       O173   2.449       .  S
C174        O178   1.263       .  A
C174        C821   1.495       .  S
C179        C180   1.535       .  S
C179        C185   1.551       .  S
C179        C183   1.540       .  S
C179        C862   1.552       .  S
C180        H187   1.084       .  S
C180        C181   1.372       .  D
C181        C182   1.549       .  S
C181       C1246   1.503       .  S
C182        C186   1.540       .  S
C182        C184   1.536       .  S
C182        H188   1.110       .  S
C183        H189   1.085       .  S
C183        C184   1.363       .  D
C184        C725   1.479       .  S
C185        H190   1.082       .  S
C185        C186   1.367       .  D
C186        C766   1.493       .  S
O191        C194   1.263       .  A
O191       Cd196   2.446       .  S
C192        O201   1.265       .  A
C192        O197   1.263       .  A
C192        C885   1.471       .  S
O193        C199   1.269       .  A
O193       Cd196   2.526       .  S
C194        O202   1.269       .  A
C194        C693   1.494       .  S
C195        O200   1.270       .  A
C195        O198   1.261       .  A
C195        C638   1.487       .  S
Cd196       O203   2.454       .  S
Cd196       O202   2.496       .  S
Cd196       O201   2.471       .  S
Cd196       O197   2.433       .  S
Cd196       O200   2.533       .  S
Cd196       O198   2.437       .  S
C199        O203   1.264       .  A
C199        C670   1.501       .  S
O204        C207   1.268       .  A
O204       Cd209   2.479       .  S
C205        O214   1.267       .  A
C205        O210   1.267       .  A
C205        C702   1.486       .  S
O206        C212   1.263       .  A
O206       Cd209   2.448       .  S
C207        O215   1.263       .  A
C207        C597   1.490       .  S
C208        O213   1.267       .  A
C208        O211   1.260       .  A
C208        C757   1.500       .  S
Cd209       O216   2.515       .  S
Cd209       O215   2.437       .  S
Cd209       O214   2.481       .  S
Cd209       O210   2.459       .  S
Cd209       O213   2.532       .  S
Cd209       O211   2.470       .  S
C212        O216   1.268       .  A
C212        C830   1.491       .  S
C217        C218   1.543       .  S
C217        C223   1.538       .  S
C217        C221   1.548       .  S
C217        C958   1.555       .  S
C218        H225   1.086       .  S
C218        C219   1.370       .  D
C219        C220   1.543       .  S
C219       C1054   1.498       .  S
C220        C224   1.549       .  S
C220        C222   1.538       .  S
C220        H226   1.109       .  S
C221        H227   1.080       .  S
C221        C222   1.363       .  D
C222        C533   1.491       .  S
C223        H228   1.086       .  S
C223        C224   1.370       .  D
C224        C565   1.498       .  S
O229        C232   1.265       .  A
O229       Cd234   2.472       .  S
C230        O239   1.266       .  A
C230        O235   1.266       .  A
C230        C478   1.478       .  S
O231        C237   1.263       .  A
O231       Cd234   2.502       .  S
C232        O240   1.267       .  A
C232        C501   1.487       .  S
C233        O238   1.268       .  A
C233        O236   1.262       .  A
C233        C926   1.493       .  S
Cd234       O241   2.509       .  S
Cd234       O240   2.490       .  S
Cd234       O239   2.460       .  S
Cd234       O235   2.457       .  S
Cd234       O238   2.543       .  S
Cd234       O236   2.445       .  S
C237        O241   1.264       .  A
C237        C574   1.502       .  S
O242        C245   1.264       .  A
O242       Cd247   2.462       .  S
C243        O252   1.265       .  A
C243        O248   1.264       .  A
C243        C789   1.485       .  S
O244        C250   1.267       .  A
O244       Cd247   2.525       .  S
C245        O253   1.269       .  A
C245        C510   1.493       .  S
C246        O251   1.270       .  A
C246        O249   1.260       .  A
C246        C405   1.496       .  S
Cd247       O254   2.485       .  S
Cd247       O253   2.521       .  S
Cd247       O252   2.452       .  S
Cd247       O248   2.444       .  S
Cd247       O251   2.549       .  S
Cd247       O249   2.437       .  S
C250        O254   1.262       .  A
C250        C446   1.504       .  S
C255        C256   1.536       .  S
C255        C261   1.551       .  S
C255        C259   1.543       .  S
C255        C373   1.546       .  S
C256        H263   1.086       .  S
C256        C257   1.367       .  D
C257        C258   1.538       .  S
C257       C1534   1.483       .  S
C258        C262   1.538       .  S
C258        C260   1.536       .  S
C258        H264   1.111       .  S
C259        H265   1.086       .  S
C259        C260   1.363       .  D
C260        C734   1.483       .  S
C261        H266   1.083       .  S
C261        C262   1.368       .  D
C262        C437   1.489       .  S
O267        C270   1.266       .  A
O267       Cd272   2.446       .  S
C268        O277   1.265       .  A
C268        O273   1.265       .  A
C268        C606   1.478       .  S
O269        C275   1.268       .  A
O269       Cd272   2.523       .  S
C270        O278   1.268       .  A
C270        C341   1.494       .  S
C271        O276   1.268       .  A
C271        O274   1.260       .  A
C271        C382   1.498       .  S
Cd272       O279   2.459       .  S
Cd272       O278   2.487       .  S
Cd272       O277   2.455       .  S
Cd272       O273   2.474       .  S
Cd272       O276   2.535       .  S
Cd272       O274   2.447       .  S
C275        O279   1.262       .  A
C275        C414   1.494       .  S
O280        C283   1.264       .  A
O280       Cd285   2.456       .  S
C281        O290   1.265       .  A
C281        O286   1.265       .  A
C281        C469   1.470       .  S
O282        C288   1.269       .  A
O282       Cd285   2.525       .  S
C283        O291   1.267       .  A
C283        C350   1.494       .  S
C284        O289   1.266       .  A
C284        O287   1.263       .  A
C284        C309   1.501       .  S
Cd285       O292   2.451       .  S
Cd285       O291   2.500       .  S
Cd285       O290   2.456       .  S
Cd285       O286   2.455       .  S
Cd285       O289   2.518       .  S
Cd285       O287   2.476       .  S
C288        O292   1.263       .  A
C288        C629   1.488       .  S
C293        C294   1.535       .  S
C293        C299   1.542       .  S
C293        C297   1.552       .  S
C293        C318   1.551       .  S
C294        H301   1.082       .  S
C294        C295   1.367       .  D
C295        C296   1.545       .  S
C295       C1438   1.500       .  S
C296        C300   1.551       .  S
C296        C298   1.535       .  S
C296        H302   1.106       .  S
C297        H303   1.083       .  S
C297        C298   1.362       .  D
C298        C542   1.488       .  S
C299        H304   1.086       .  S
C299        C300   1.372       .  D
C300        C661   1.504       .  S
C305        C306   1.403       .  A
C305        C310   1.410       .  A
C305        H315   1.084       .  S
C306        C311   1.491       .  S
C306        C307   1.409       .  A
C307        C312   1.507       .  S
C307        C308   1.406       .  A
C308        C309   1.411       .  A
C308        H313   1.083       .  S
C309        C310   1.422       .  A
C310        C314   1.506       .  S
C311        C316   1.407       .  A
C311        C320   1.402       .  A
C312        H328   1.110       .  S
C312        H329   1.110       .  S
C312        H330   1.111       .  S
C314        H325   1.110       .  S
C314        H326   1.111       .  S
C314        H327   1.110       .  S
C316        C321   1.509       .  S
C316        C317   1.402       .  A
C317        C318   1.416       .  A
C317        H322   1.077       .  S
C318        C319   1.429       .  A
C319        C323   1.508       .  S
C319        C320   1.413       .  A
C320        H324   1.084       .  S
C321        H331   1.111       .  S
C321        H332   1.110       .  S
C321        H333   1.110       .  S
C323        H334   1.111       .  S
C323        H335   1.104       .  S
C323        H336   1.110       .  S
C337        C338   1.402       .  A
C337        C342   1.408       .  A
C337        H347   1.084       .  S
C338        C343   1.489       .  S
C338        C339   1.410       .  A
C339        C344   1.507       .  S
C339        C340   1.403       .  A
C340        C341   1.408       .  A
C340        H345   1.084       .  S
C341        C342   1.421       .  A
C342        C346   1.507       .  S
C343        C348   1.412       .  A
C343        C352   1.403       .  A
C344        H360   1.109       .  S
C344        H361   1.110       .  S
C344        H362   1.111       .  S
C346        H357   1.110       .  S
C346        H358   1.111       .  S
C346        H359   1.110       .  S
C348        C353   1.508       .  S
C348        C349   1.403       .  A
C349        C350   1.408       .  A
C349        H354   1.084       .  S
C350        C351   1.420       .  A
C351        C355   1.507       .  S
C351        C352   1.409       .  A
C352        H356   1.084       .  S
C353        H363   1.111       .  S
C353        H364   1.109       .  S
C353        H365   1.110       .  S
C355        H366   1.110       .  S
C355        H367   1.110       .  S
C355        H368   1.111       .  S
C369        C370   1.399       .  A
C369        C374   1.404       .  A
C369        H379   1.084       .  S
C370        C375   1.492       .  S
C370        C371   1.411       .  A
C371        C376   1.508       .  S
C371        C372   1.407       .  A
C372        C373   1.413       .  A
C372        H377   1.078       .  S
C373        C374   1.429       .  A
C374        C378   1.508       .  S
C375        C380   1.414       .  A
C375        C384   1.399       .  A
C376        H392   1.108       .  S
C376        H393   1.110       .  S
C376        H394   1.111       .  S
C378        H389   1.111       .  S
C378        H390   1.110       .  S
C378        H391   1.101       .  S
C380        C385   1.507       .  S
C380        C381   1.411       .  A
C381        C382   1.409       .  A
C381        H386   1.084       .  S
C382        C383   1.424       .  A
C383        C387   1.509       .  S
C383        C384   1.403       .  A
C384        H388   1.084       .  S
C385        H395   1.111       .  S
C385        H396   1.108       .  S
C385        H397   1.110       .  S
C387        H398   1.111       .  S
C387        H399   1.110       .  S
C387        H400   1.110       .  S
C401        C402   1.400       .  A
C401        C406   1.404       .  A
C401        H411   1.084       .  S
C402        C407   1.493       .  S
C402        C403   1.413       .  A
C403        C408   1.505       .  S
C403        C404   1.412       .  A
C404        C405   1.409       .  A
C404        H409   1.084       .  S
C405        C406   1.421       .  A
C406        C410   1.509       .  S
C407        C412   1.413   1_655  A
C407        C416   1.402       .  A
C408        H424   1.109       .  S
C408        H425   1.110       .  S
C408        H426   1.111       .  S
C410        H421   1.111       .  S
C410        H422   1.109       .  S
C410        H423   1.110       .  S
C412        C417   1.506   1_455  S
C412        C413   1.409       .  A
C413        C414   1.407       .  A
C413        H418   1.084       .  S
C414        C415   1.420       .  A
C415        C419   1.508       .  S
C415        C416   1.407   1_455  A
C416        H420   1.084       .  S
C417        H427   1.111   1_655  S
C417        H428   1.109       .  S
C417        H429   1.110       .  S
C419        H430   1.109       .  S
C419        H431   1.111       .  S
C419        H432   1.111       .  S
C433        C434   1.402       .  A
C433        C438   1.405       .  A
C433        H443   1.085       .  S
C434        C439   1.493       .  S
C434        C435   1.413       .  A
C435        C440   1.505       .  S
C435        C436   1.411       .  A
C436        C437   1.405       .  A
C436        H441   1.084       .  S
C437        C438   1.417       .  A
C438        C442   1.508       .  S
C439        C444   1.411       .  A
C439        C448   1.400       .  A
C440        H456   1.110       .  S
C440        H457   1.110       .  S
C440        H458   1.111       .  S
C442        H453   1.110       .  S
C442        H454   1.110       .  S
C442        H455   1.107       .  S
C444        C449   1.506       .  S
C444        C445   1.410       .  A
C445        C446   1.410       .  A
C445        H450   1.083       .  S
C446        C447   1.426       .  A
C447        C451   1.508       .  S
C447        C448   1.409       .  A
C448        H452   1.084       .  S
C449        H459   1.111       .  S
C449        H460   1.110       .  S
C449        H461   1.110       .  S
C451        H462   1.110       .  S
C451        H463   1.110       .  S
C451        H464   1.111       .  S
C465        C466   1.401       .  A
C465        C470   1.403       .  A
C465        H475   1.084       .  S
C466        C471   1.477       .  S
C466        C467   1.410       .  A
C467        C472   1.506       .  S
C467        C468   1.401       .  A
C468        C469   1.402       .  A
C468        H473   1.084       .  S
C469        C470   1.415       .  A
C470        C474   1.508       .  S
C471        C476   1.409       .  A
C471        C480   1.400       .  A
C472        H488   1.110       .  S
C472        H489   1.110       .  S
C472        H490   1.111       .  S
C474        H485   1.111       .  S
C474        H486   1.110       .  S
C474        H487   1.107       .  S
C476        C481   1.506       .  S
C476        C477   1.402       .  A
C477        C478   1.405       .  A
C477        H482   1.084       .  S
C478        C479   1.419       .  A
C479        C483   1.508       .  S
C479        C480   1.403       .  A
C480        H484   1.085       .  S
C481        H491   1.111       .  S
C481        H492   1.110       .  S
C481        H493   1.110       .  S
C483        H494   1.110       .  S
C483        H495   1.106       .  S
C483        H496   1.111       .  S
C497        C498   1.403       .  A
C497        C502   1.406       .  A
C497        H507   1.085       .  S
C498        C503   1.491       .  S
C498        C499   1.411       .  A
C499        C504   1.505       .  S
C499        C500   1.408       .  A
C500        C501   1.407       .  A
C500        H505   1.084       .  S
C501        C502   1.419       .  A
C502        C506   1.508       .  S
C503        C508   1.410       .  A
C503        C512   1.403       .  A
C504        H520   1.110       .  S
C504        H521   1.110       .  S
C504        H522   1.111       .  S
C506        H517   1.111       .  S
C506        H518   1.110       .  S
C506        H519   1.106       .  S
C508        C513   1.507       .  S
C508        C509   1.405       .  A
C509        C510   1.408       .  A
C509        H514   1.084       .  S
C510        C511   1.422       .  A
C511        C515   1.508       .  S
C511        C512   1.410       .  A
C512        H516   1.084       .  S
C513        H523   1.111       .  S
C513        H524   1.109       .  S
C513        H525   1.111       .  S
C515        H526   1.111       .  S
C515        H527   1.103       .  S
C515        H528   1.110       .  S
C529        C530   1.397       .  A
C529        C534   1.400       .  A
C529        H539   1.085       .  S
C530        C535   1.481       .  S
C530        C531   1.412       .  A
C531        C536   1.507       .  S
C531        C532   1.407       .  A
C532        C533   1.405       .  A
C532        H537   1.084       .  S
C533        C534   1.423       .  A
C534        C538   1.510       .  S
C535        C540   1.410       .  A
C535        C544   1.401       .  A
C536        H552   1.110       .  S
C536        H553   1.108       .  S
C536        H554   1.111       .  S
C538        H549   1.110       .  S
C538        H550   1.111       .  S
C538        H551   1.106       .  S
C540        C545   1.508       .  S
C540        C541   1.402       .  A
C541        C542   1.405       .  A
C541        H546   1.084       .  S
C542        C543   1.415       .  A
C543        C547   1.505       .  S
C543        C544   1.405       .  A
C544        H548   1.084       .  S
C545        H555   1.111       .  S
C545        H556   1.110       .  S
C545        H557   1.108       .  S
C547        H558   1.107       .  S
C547        H559   1.107       .  S
C547        H560   1.111       .  S
C561        C562   1.404       .  A
C561        C566   1.410       .  A
C561        H571   1.084       .  S
C562        C567   1.493       .  S
C562        C563   1.411       .  A
C563        C568   1.507       .  S
C563        C564   1.405       .  A
C564        C565   1.408       .  A
C564        H569   1.084       .  S
C565        C566   1.419       .  A
C566        C570   1.506       .  S
C567        C572   1.410       .  A
C567        C576   1.402       .  A
C568        H584   1.110       .  S
C568        H585   1.110       .  S
C568        H586   1.111       .  S
C570        H581   1.110       .  S
C570        H582   1.111       .  S
C570        H583   1.105       .  S
C572        C577   1.507       .  S
C572        C573   1.408       .  A
C573        C574   1.411       .  A
C573        H578   1.084       .  S
C574        C575   1.423       .  A
C575        C579   1.507       .  S
C575        C576   1.410       .  A
C576        H580   1.084       .  S
C577        H587   1.111       .  S
C577        H588   1.110       .  S
C577        H589   1.111       .  S
C579        H590   1.110       .  S
C579        H591   1.110       .  S
C579        H592   1.111       .  S
C593        C594   1.399       .  A
C593        C598   1.402       .  A
C593        H603   1.084       .  S
C594        C599   1.482       .  S
C594        C595   1.409       .  A
C595        C600   1.506       .  S
C595        C596   1.404       .  A
C596        C597   1.409       .  A
C596        H601   1.084       .  S
C597        C598   1.422       .  A
C598        C602   1.509       .  S
C599        C604   1.411       .  A
C599        C608   1.402       .  A
C600        H616   1.109       .  S
C600        H617   1.110       .  S
C600        H618   1.111       .  S
C602        H613   1.110       .  S
C602        H614   1.111       .  S
C602        H615   1.110       .  S
C604        C609   1.508       .  S
C604        C605   1.401       .  A
C605        C606   1.404       .  A
C605        H610   1.084       .  S
C606        C607   1.419       .  A
C607        C611   1.508       .  S
C607        C608   1.405       .  A
C608        H612   1.085       .  S
C609        H619   1.111       .  S
C609        H620   1.109       .  S
C609        H621   1.110       .  S
C611        H622   1.111       .  S
C611        H623   1.105       .  S
C611        H624   1.111       .  S
C625        C626   1.403       .  A
C625        C630   1.410       .  A
C625        H635   1.084       .  S
C626        C631   1.490   1_565  S
C626        C627   1.410       .  A
C627        C632   1.507       .  S
C627        C628   1.404       .  A
C628        C629   1.406       .  A
C628        H633   1.084       .  S
C629        C630   1.420       .  A
C630        C634   1.507       .  S
C631        C636   1.411       .  A
C631        C640   1.404       .  A
C632        H648   1.110       .  S
C632        H649   1.110   1_565  S
C632        H650   1.111       .  S
C634        H645   1.111       .  S
C634        H646   1.110       .  S
C634        H647   1.104       .  S
C636        C641   1.508       .  S
C636        C637   1.403       .  A
C637        C638   1.406       .  A
C637        H642   1.084       .  S
C638        C639   1.419       .  A
C639        C643   1.507       .  S
C639        C640   1.411       .  A
C640        H644   1.084       .  S
C641        H651   1.111       .  S
C641        H652   1.110       .  S
C641        H653   1.110       .  S
C643        H654   1.110       .  S
C643        H655   1.105       .  S
C643        H656   1.111       .  S
C657        C658   1.399       .  A
C657        C662   1.407       .  A
C657        H667   1.084       .  S
C658        C663   1.491       .  S
C658        C659   1.411       .  A
C659        C664   1.505       .  S
C659        C660   1.410       .  A
C660        C661   1.409       .  A
C660        H665   1.084       .  S
C661        C662   1.421       .  A
C662        C666   1.503       .  S
C663        C668   1.410       .  A
C663        C672   1.403       .  A
C664        H680   1.110       .  S
C664        H681   1.110       .  S
C664        H682   1.111       .  S
C666        H677   1.111       .  S
C666        H678   1.106       .  S
C666        H679   1.106       .  S
C668        C673   1.508       .  S
C668        C669   1.404       .  A
C669        C670   1.410       .  A
C669        H674   1.083       .  S
C670        C671   1.422       .  A
C671        C675   1.506       .  S
C671        C672   1.413       .  A
C672        H676   1.084       .  S
C673        H683   1.111       .  S
C673        H684   1.110       .  S
C673        H685   1.110       .  S
C675        H686   1.110       .  S
C675        H687   1.110       .  S
C675        H688   1.111       .  S
C689        C690   1.398       .  A
C689        C694   1.404       .  A
C689        H699   1.084       .  S
C690        C695   1.483       .  S
C690        C691   1.409       .  A
C691        C696   1.506       .  S
C691        C692   1.406       .  A
C692        C693   1.409       .  A
C692        H697   1.083       .  S
C693        C694   1.424       .  A
C694        C698   1.509       .  S
C695        C700   1.409       .  A
C695        C704   1.401       .  A
C696        H712   1.110       .  S
C696        H713   1.109       .  S
C696        H714   1.111       .  S
C698        H709   1.111       .  S
C698        H710   1.110       .  S
C698        H711   1.110       .  S
C700        C705   1.507       .  S
C700        C701   1.403       .  A
C701        C702   1.407       .  A
C701        H706   1.084       .  S
C702        C703   1.421       .  A
C703        C707   1.508       .  S
C703        C704   1.406       .  A
C704        H708   1.085       .  S
C705        H715   1.111       .  S
C705        H716   1.110       .  S
C705        H717   1.109       .  S
C707        H718   1.111       .  S
C707        H719   1.104       .  S
C707        H720   1.110       .  S
C721        C722   1.401       .  A
C721        C726   1.403       .  A
C721        H731   1.084       .  S
C722        C727   1.484       .  S
C722        C723   1.412       .  A
C723        C728   1.506       .  S
C723        C724   1.406       .  A
C724        C725   1.402       .  A
C724        H729   1.084       .  S
C725        C726   1.415       .  A
C726        C730   1.508       .  S
C727        C732   1.413       .  A
C727        C736   1.400       .  A
C728        H744   1.110       .  S
C728        H745   1.110       .  S
C728        H746   1.111       .  S
C730        H741   1.110       .  S
C730        H742   1.111       .  S
C730        H743   1.107       .  S
C732        C737   1.506       .  S
C732        C733   1.406       .  A
C733        C734   1.402       .  A
C733        H738   1.084       .  S
C734        C735   1.417       .  A
C735        C739   1.507       .  S
C735        C736   1.404       .  A
C736        H740   1.084       .  S
C737        H747   1.111       .  S
C737        H748   1.110       .  S
C737        H749   1.110       .  S
C739        H750   1.111       .  S
C739        H751   1.105       .  S
C739        H752   1.110       .  S
C753        C754   1.400       .  A
C753        C758   1.408       .  A
C753        H763   1.084       .  S
C754        C759   1.492       .  S
C754        C755   1.412       .  A
C755        C760   1.506       .  S
C755        C756   1.409       .  A
C756        C757   1.409       .  A
C756        H761   1.084       .  S
C757        C758   1.424       .  A
C758        C762   1.508       .  S
C759        C764   1.413       .  A
C759        C768   1.400       .  A
C760        H776   1.110       .  S
C760        H777   1.110       .  S
C760        H778   1.111       .  S
C762        H773   1.111       .  S
C762        H774   1.110       .  S
C762        H775   1.110       .  S
C764        C769   1.505       .  S
C764        C765   1.412       .  A
C765        C766   1.405       .  A
C765        H770   1.084       .  S
C766        C767   1.420       .  A
C767        C771   1.509       .  S
C767        C768   1.403       .  A
C768        H772   1.085       .  S
C769        H779   1.111       .  S
C769        H780   1.110       .  S
C769        H781   1.110       .  S
C771        H782   1.111       .  S
C771        H783   1.105       .  S
C771        H784   1.110       .  S
C785        C786   1.398       .  A
C785        C790   1.402       .  A
C785        H795   1.084       .  S
C786        C791   1.474       .  S
C786        C787   1.407       .  A
C787        C792   1.507       .  S
C787        C788   1.401       .  A
C788        C789   1.409       .  A
C788        H793   1.084       .  S
C789        C790   1.421       .  A
C790        C794   1.508       .  S
C791        C796   1.408       .  A
C791        C800   1.398       .  A
C792        H808   1.110       .  S
C792        H809   1.110       .  S
C792        H810   1.111       .  S
C794        H805   1.110       .  S
C794        H806   1.111       .  S
C794        H807   1.110       .  S
C796        C801   1.507       .  S
C796        C797   1.402       .  A
C797        C798   1.406       .  A
C797        H802   1.084       .  S
C798        C799   1.420       .  A
C799        C803   1.510       .  S
C799        C800   1.401       .  A
C800        H804   1.085       .  S
C801        H811   1.111       .  S
C801        H812   1.110       .  S
C801        H813   1.110       .  S
C803        H814   1.111       .  S
C803        H815   1.105       .  S
C803        H816   1.110       .  S
C817        C818   1.403       .  A
C817        C822   1.411       .  A
C817        H827   1.084       .  S
C818        C823   1.487   1_655  S
C818        C819   1.409       .  A
C819        C824   1.508       .  S
C819        C820   1.402       .  A
C820        C821   1.409       .  A
C820        H825   1.084       .  S
C821        C822   1.420       .  A
C822        C826   1.506       .  S
C823        C828   1.410       .  A
C823        C832   1.403       .  A
C824        H840   1.110       .  S
C824        H841   1.110       .  S
C824        H842   1.111       .  S
C826        H837   1.111       .  S
C826        H838   1.110       .  S
C826        H839   1.110       .  S
C828        C833   1.507       .  S
C828        C829   1.404       .  A
C829        C830   1.407       .  A
C829        H834   1.084       .  S
C830        C831   1.419       .  A
C831        C835   1.506       .  S
C831        C832   1.410       .  A
C832        H836   1.084       .  S
C833        H843   1.111       .  S
C833        H844   1.110   1_455  S
C833        H845   1.110   1_455  S
C835        H846   1.111       .  S
C835        H847   1.110       .  S
C835        H848   1.111       .  S
C849        C850   1.400       .  A
C849        C854   1.406       .  A
C849        H859   1.084       .  S
C850        C855   1.493       .  S
C850        C851   1.412       .  A
C851        C856   1.506       .  S
C851        C852   1.411       .  A
C852        C853   1.410       .  A
C852        H857   1.083       .  S
C853        C854   1.425       .  A
C854        C858   1.509       .  S
C855        C860   1.408       .  A
C855        C864   1.400       .  A
C856        H872   1.109       .  S
C856        H873   1.110       .  S
C856        H874   1.111       .  S
C858        H869   1.110       .  S
C858        H870   1.111       .  S
C858        H871   1.110       .  S
C860        C865   1.508       .  S
C860        C861   1.406       .  A
C861        C862   1.415       .  A
C861        H866   1.076       .  S
C862        C863   1.432       .  A
C863        C867   1.514       .  S
C863        C864   1.411       .  A
C864        H868   1.084       .  S
C865        H875   1.111       .  S
C865        H876   1.109       .  S
C865        H877   1.111       .  S
C867        H878   1.111       .  S
C867        H879   1.104       .  S
C867        H880   1.107       .  S
C881        C882   1.399       .  A
C881        C886   1.401       .  A
C881        H891   1.084       .  S
C882        C887   1.474       .  S
C882        C883   1.410       .  A
C883        C888   1.506       .  S
C883        C884   1.402       .  A
C884        C885   1.403       .  A
C884        H889   1.084       .  S
C885        C886   1.415       .  A
C886        C890   1.508       .  S
C887        C892   1.407       .  A
C887        C896   1.398       .  A
C888        H904   1.110       .  S
C888        H905   1.110       .  S
C888        H906   1.111       .  S
C890        H901   1.111       .  S
C890        H902   1.109       .  S
C890        H903   1.111       .  S
C892        C897   1.506       .  S
C892        C893   1.403       .  A
C893        C894   1.409       .  A
C893        H898   1.084       .  S
C894        C895   1.420       .  A
C895        C899   1.508       .  S
C895        C896   1.401       .  A
C896        H900   1.084       .  S
C897        H907   1.111       .  S
C897        H908   1.110       .  S
C897        H909   1.110       .  S
C899        H910   1.110       .  S
C899        H911   1.110       .  S
C899        H912   1.111       .  S
C913        C914   1.404   1_545  A
C913        C918   1.412       .  A
C913        H923   1.084   1_545  S
C914        C919   1.491       .  S
C914        C915   1.410   1_565  A
C915        C920   1.507   1_545  S
C915        C916   1.403       .  A
C916        C917   1.407       .  A
C916        H921   1.084       .  S
C917        C918   1.422       .  A
C918        C922   1.507       .  S
C919        C924   1.409       .  A
C919        C928   1.404       .  A
C920        H936   1.110       .  S
C920        H937   1.110       .  S
C920        H938   1.111   1_565  S
C922        H933   1.111       .  S
C922        H934   1.110       .  S
C922        H935   1.104       .  S
C924        C929   1.507       .  S
C924        C925   1.402       .  A
C925        C926   1.407       .  A
C925        H930   1.084       .  S
C926        C927   1.423       .  A
C927        C931   1.507       .  S
C927        C928   1.412       .  A
C928        H932   1.084       .  S
C929        H939   1.111       .  S
C929        H940   1.110       .  S
C929        H941   1.110       .  S
C931        H942   1.110       .  S
C931        H943   1.103       .  S
C931        H944   1.111       .  S
C945        C946   1.403       .  A
C945        C950   1.411       .  A
C945        H955   1.084       .  S
C946        C951   1.492       .  S
C946        C947   1.409       .  A
C947        C952   1.507       .  S
C947        C948   1.406       .  A
C948        C949   1.410       .  A
C948        H953   1.084       .  S
C949        C950   1.422       .  A
C950        C954   1.506       .  S
C951        C956   1.406       .  A
C951        C960   1.400       .  A
C952        H968   1.110       .  S
C952        H969   1.110       .  S
C952        H970   1.111       .  S
C954        H965   1.110       .  S
C954        H966   1.111       .  S
C954        H967   1.110       .  S
C956        C961   1.509       .  S
C956        C957   1.403       .  A
C957        C958   1.418       .  A
C957        H962   1.074       .  S
C958        C959   1.430       .  A
C959        C963   1.509       .  S
C959        C960   1.412       .  A
C960        H964   1.084       .  S
C961        H971   1.111       .  S
C961        H972   1.110       .  S
C961        H973   1.110       .  S
C963        H974   1.111       .  S
C963        H975   1.103       .  S
C963        H976   1.110       .  S
C977        C978   1.399       .  A
C977        C982   1.405       .  A
C977        H987   1.084       .  S
C978        C983   1.487       .  S
C978        C979   1.410       .  A
C979        C984   1.506       .  S
C979        C980   1.406       .  A
C980        C981   1.409       .  A
C980        H985   1.083       .  S
C981        C982   1.423       .  A
C982        C986   1.508       .  S
C983        C988   1.411       .  A
C983        C992   1.400       .  A
C984       H1000   1.109       .  S
C984       H1001   1.110       .  S
C984       H1002   1.111       .  S
C986        H997   1.110       .  S
C986        H998   1.111       .  S
C986        H999   1.110       .  S
C988        C993   1.506       .  S
C988        C989   1.407       .  A
C989        C990   1.408       .  A
C989        H994   1.083       .  S
C990        C991   1.424       .  A
C991        C995   1.509       .  S
C991        C992   1.405       .  A
C992        H996   1.084       .  S
C993       H1003   1.111       .  S
C993       H1004   1.109       .  S
C993       H1005   1.110       .  S
C995       H1006   1.110       .  S
C995       H1007   1.110       .  S
C995       H1008   1.111       .  S
C1009      C1010   1.401       .  A
C1009      C1014   1.408       .  A
C1009      H1019   1.084       .  S
C1010      C1015   1.483       .  S
C1010      C1011   1.409       .  A
C1011      C1016   1.507       .  S
C1011      C1012   1.402       .  A
C1012      C1013   1.408       .  A
C1012      H1017   1.084       .  S
C1013      C1014   1.421       .  A
C1014      C1018   1.507       .  S
C1015      C1020   1.410       .  A
C1015      C1024   1.397       .  A
C1016      H1032   1.110       .  S
C1016      H1033   1.110       .  S
C1016      H1034   1.111       .  S
C1018      H1029   1.110       .  S
C1018      H1030   1.111       .  S
C1018      H1031   1.110       .  S
C1020      C1025   1.506       .  S
C1020      C1021   1.407       .  A
C1021      C1022   1.409       .  A
C1021      H1026   1.084       .  S
C1022      C1023   1.425       .  A
C1023      C1027   1.509       .  S
C1023      C1024   1.403       .  A
C1024      H1028   1.084       .  S
C1025      H1035   1.111       .  S
C1025      H1036   1.110       .  S
C1025      H1037   1.110       .  S
C1027      H1038   1.110       .  S
C1027      H1039   1.110       .  S
C1027      H1040   1.111       .  S
C1041      C1042   1.402       .  A
C1041      C1046   1.408       .  A
C1041      H1051   1.084       .  S
C1042      C1047   1.494       .  S
C1042      C1043   1.411       .  A
C1043      C1048   1.507       .  S
C1043      C1044   1.407       .  A
C1044      C1045   1.410       .  A
C1044      H1049   1.083       .  S
C1045      C1046   1.421       .  A
C1046      C1050   1.505       .  S
C1047      C1052   1.412       .  A
C1047      C1056   1.402       .  A
C1048      H1064   1.109       .  S
C1048      H1065   1.111       .  S
C1048      H1066   1.111       .  S
C1050      H1061   1.111       .  S
C1050      H1062   1.110       .  S
C1050      H1063   1.102       .  S
C1052      C1057   1.505       .  S
C1052      C1053   1.409       .  A
C1053      C1054   1.407       .  A
C1053      H1058   1.084       .  S
C1054      C1055   1.419       .  A
C1055      C1059   1.505       .  S
C1055      C1056   1.407       .  A
C1056      H1060   1.084       .  S
C1057      H1067   1.111       .  S
C1057      H1068   1.110       .  S
C1057      H1069   1.110       .  S
C1059      H1070   1.111       .  S
C1059      H1071   1.108       .  S
C1059      H1072   1.107       .  S
C1073      C1074   1.401       .  A
C1073      C1078   1.407       .  A
C1073      H1083   1.084       .  S
C1074      C1079   1.492       .  S
C1074      C1075   1.412       .  A
C1075      C1080   1.505       .  S
C1075      C1076   1.410       .  A
C1076      C1077   1.408       .  A
C1076      H1081   1.084       .  S
C1077      C1078   1.421       .  A
C1078      C1082   1.508       .  S
C1079      C1084   1.412       .  A
C1079      C1088   1.403       .  A
C1080      H1096   1.110       .  S
C1080      H1097   1.110       .  S
C1080      H1098   1.111       .  S
C1082      H1093   1.111       .  S
C1082      H1094   1.110       .  S
C1082      H1095   1.109       .  S
C1084      C1089   1.507       .  S
C1084      C1085   1.406       .  A
C1085      C1086   1.404       .  A
C1085      H1090   1.083       .  S
C1086      C1087   1.417       .  A
C1087      C1091   1.507       .  S
C1087      C1088   1.409       .  A
C1088      H1092   1.084       .  S
C1089      H1099   1.111       .  S
C1089      H1100   1.110       .  S
C1089      H1101   1.110       .  S
C1091      H1102   1.110       .  S
C1091      H1103   1.108       .  S
C1091      H1104   1.110       .  S
C1105      C1106   1.398       .  A
C1105      C1110   1.403       .  A
C1105      H1115   1.085       .  S
C1106      C1111   1.490   1_565  S
C1106      C1107   1.411       .  A
C1107      C1112   1.504       .  S
C1107      C1108   1.413       .  A
C1108      C1109   1.409       .  A
C1108      H1113   1.083       .  S
C1109      C1110   1.423       .  A
C1110      C1114   1.509       .  S
C1111      C1116   1.410       .  A
C1111      C1120   1.402       .  A
C1112      H1128   1.110       .  S
C1112      H1129   1.110       .  S
C1112      H1130   1.111       .  S
C1114      H1125   1.111       .  S
C1114      H1126   1.110       .  S
C1114      H1127   1.109       .  S
C1116      C1121   1.508       .  S
C1116      C1117   1.404       .  A
C1117      C1118   1.409       .  A
C1117      H1122   1.084       .  S
C1118      C1119   1.423       .  A
C1119      C1123   1.507       .  S
C1119      C1120   1.412       .  A
C1120      H1124   1.084       .  S
C1121      H1131   1.111       .  S
C1121      H1132   1.110   1_545  S
C1121      H1133   1.110   1_545  S
C1123      H1134   1.110       .  S
C1123      H1135   1.110       .  S
C1123      H1136   1.111       .  S
C1137      C1138   1.399       .  A
C1137      C1142   1.411       .  A
C1137      H1147   1.085       .  S
C1138      C1143   1.492       .  S
C1138      C1139   1.407       .  A
C1139      C1144   1.509       .  S
C1139      C1140   1.406       .  A
C1140      C1141   1.418       .  A
C1140      H1145   1.074       .  S
C1141      C1142   1.431       .  A
C1142      C1146   1.510       .  S
C1143      C1148   1.410       .  A
C1143      C1152   1.403       .  A
C1144      H1160   1.110       .  S
C1144      H1161   1.110       .  S
C1144      H1162   1.111       .  S
C1146      H1157   1.110       .  S
C1146      H1158   1.111       .  S
C1146      H1159   1.103       .  S
C1148      C1153   1.507       .  S
C1148      C1149   1.406       .  A
C1149      C1150   1.410       .  A
C1149      H1154   1.083       .  S
C1150      C1151   1.422       .  A
C1151      C1155   1.507       .  S
C1151      C1152   1.410       .  A
C1152      H1156   1.084       .  S
C1153      H1163   1.111       .  S
C1153      H1164   1.110       .  S
C1153      H1165   1.110       .  S
C1155      H1166   1.111       .  S
C1155      H1167   1.110       .  S
C1155      H1168   1.110       .  S
C1169      C1170   1.399       .  A
C1169      C1174   1.403       .  A
C1169      H1179   1.084       .  S
C1170      C1175   1.476       .  S
C1170      C1171   1.408       .  A
C1171      C1176   1.507       .  S
C1171      C1172   1.402       .  A
C1172      C1173   1.407       .  A
C1172      H1177   1.084       .  S
C1173      C1174   1.420       .  A
C1174      C1178   1.508       .  S
C1175      C1180   1.408       .  A
C1175      C1184   1.399       .  A
C1176      H1192   1.110       .  S
C1176      H1193   1.110       .  S
C1176      H1194   1.111       .  S
C1178      H1189   1.111       .  S
C1178      H1190   1.110       .  S
C1178      H1191   1.110       .  S
C1180      C1185   1.507       .  S
C1180      C1181   1.401       .  A
C1181      C1182   1.407       .  A
C1181      H1186   1.084       .  S
C1182      C1183   1.420       .  A
C1183      C1187   1.508       .  S
C1183      C1184   1.403       .  A
C1184      H1188   1.084       .  S
C1185      H1195   1.111       .  S
C1185      H1196   1.110       .  S
C1185      H1197   1.110       .  S
C1187      H1198   1.111       .  S
C1187      H1199   1.111       .  S
C1187      H1200   1.110       .  S
C1201      C1202   1.399       .  A
C1201      C1206   1.405       .  A
C1201      H1211   1.084       .  S
C1202      C1207   1.484       .  S
C1202      C1203   1.410       .  A
C1203      C1208   1.507       .  S
C1203      C1204   1.405       .  A
C1204      C1205   1.408       .  A
C1204      H1209   1.084       .  S
C1205      C1206   1.424       .  A
C1206      C1210   1.509       .  S
C1207      C1212   1.410       .  A
C1207      C1216   1.398       .  A
C1208      H1224   1.109       .  S
C1208      H1225   1.110       .  S
C1208      H1226   1.111       .  S
C1210      H1221   1.110       .  S
C1210      H1222   1.111       .  S
C1210      H1223   1.110       .  S
C1212      C1217   1.506       .  S
C1212      C1213   1.406       .  A
C1213      C1214   1.408       .  A
C1213      H1218   1.083       .  S
C1214      C1215   1.425       .  A
C1215      C1219   1.509       .  S
C1215      C1216   1.403       .  A
C1216      H1220   1.084       .  S
C1217      H1227   1.111       .  S
C1217      H1228   1.110       .  S
C1217      H1229   1.110       .  S
C1219      H1230   1.110       .  S
C1219      H1231   1.110       .  S
C1219      H1232   1.111       .  S
C1233      C1234   1.402       .  A
C1233      C1238   1.406       .  A
C1233      H1243   1.084       .  S
C1234      C1239   1.495   1_556  S
C1234      C1235   1.414       .  A
C1235      C1240   1.510       .  S
C1235      C1236   1.409       .  A
C1236      C1237   1.410       .  A
C1236      H1241   1.081       .  S
C1237      C1238   1.423       .  A
C1238      C1242   1.508       .  S
C1239      C1244   1.415       .  A
C1239      C1248   1.403       .  A
C1240      H1256   1.110       .  S
C1240      H1257   1.105       .  S
C1240      H1258   1.111       .  S
C1242      H1253   1.110       .  S
C1242      H1254   1.111       .  S
C1242      H1255   1.108       .  S
C1244      C1249   1.510       .  S
C1244      C1245   1.409       .  A
C1245      C1246   1.408       .  A
C1245      H1250   1.082       .  S
C1246      C1247   1.421       .  A
C1247      C1251   1.508       .  S
C1247      C1248   1.406       .  A
C1248      H1252   1.084       .  S
C1249      H1259   1.111       .  S
C1249      H1260   1.110   1_554  S
C1249      H1261   1.105   1_554  S
C1251      H1262   1.111       .  S
C1251      H1263   1.108       .  S
C1251      H1264   1.110       .  S
C1265      C1266   1.401       .  A
C1265      C1270   1.403       .  A
C1265      H1275   1.085       .  S
C1266      C1271   1.494       .  S
C1266      C1267   1.415       .  A
C1267      C1272   1.506       .  S
C1267      C1268   1.412       .  A
C1268      C1269   1.405       .  A
C1268      H1273   1.084       .  S
C1269      C1270   1.419       .  A
C1270      C1274   1.509       .  S
C1271      C1276   1.414       .  A
C1271      C1280   1.403       .  A
C1272      H1288   1.109       .  S
C1272      H1289   1.110       .  S
C1272      H1290   1.111       .  S
C1274      H1285   1.110       .  S
C1274      H1286   1.110       .  S
C1274      H1287   1.105       .  S
C1276      C1281   1.507       .  S
C1276      C1277   1.407       .  A
C1277      C1278   1.405       .  A
C1277      H1282   1.084       .  S
C1278      C1279   1.421       .  A
C1279      C1283   1.509       .  S
C1279      C1280   1.408       .  A
C1280      H1284   1.084       .  S
C1281      H1291   1.111       .  S
C1281      H1292   1.109       .  S
C1281      H1293   1.110       .  S
C1283      H1294   1.111       .  S
C1283      H1295   1.104       .  S
C1283      H1296   1.110       .  S
C1297      C1298   1.398       .  A
C1297      C1302   1.405       .  A
C1297      H1307   1.084       .  S
C1298      C1303   1.476       .  S
C1298      C1299   1.408       .  A
C1299      C1304   1.507       .  S
C1299      C1300   1.400       .  A
C1300      C1301   1.407       .  A
C1300      H1305   1.084       .  S
C1301      C1302   1.422       .  A
C1302      C1306   1.508       .  S
C1303      C1308   1.409       .  A
C1303      C1312   1.399       .  A
C1304      H1320   1.110       .  S
C1304      H1321   1.110       .  S
C1304      H1322   1.111       .  S
C1306      H1317   1.111       .  S
C1306      H1318   1.110       .  S
C1306      H1319   1.110       .  S
C1308      C1313   1.506       .  S
C1308      C1309   1.403       .  A
C1309      C1310   1.404       .  A
C1309      H1314   1.084       .  S
C1310      C1311   1.418       .  A
C1311      C1315   1.509       .  S
C1311      C1312   1.400       .  A
C1312      H1316   1.085       .  S
C1313      H1323   1.111       .  S
C1313      H1324   1.110       .  S
C1313      H1325   1.110       .  S
C1315      H1326   1.110       .  S
C1315      H1327   1.105       .  S
C1315      H1328   1.111       .  S
C1329      C1330   1.404       .  A
C1329      C1334   1.410       .  A
C1329      H1339   1.084       .  S
C1330      C1335   1.489   1_455  S
C1330      C1331   1.411       .  A
C1331      C1336   1.508       .  S
C1331      C1332   1.403       .  A
C1332      C1333   1.406       .  A
C1332      H1337   1.084       .  S
C1333      C1334   1.421       .  A
C1334      C1338   1.507       .  S
C1335      C1340   1.411       .  A
C1335      C1344   1.405       .  A
C1336      H1352   1.110   1_455  S
C1336      H1353   1.110   1_455  S
C1336      H1354   1.111       .  S
C1338      H1349   1.111       .  S
C1338      H1350   1.110       .  S
C1338      H1351   1.104       .  S
C1340      C1345   1.507       .  S
C1340      C1341   1.402       .  A
C1341      C1342   1.404       .  A
C1341      H1346   1.085       .  S
C1342      C1343   1.418       .  A
C1343      C1347   1.507       .  S
C1343      C1344   1.410       .  A
C1344      H1348   1.084       .  S
C1345      H1355   1.111       .  S
C1345      H1356   1.110       .  S
C1345      H1357   1.110       .  S
C1347      H1358   1.110       .  S
C1347      H1359   1.106       .  S
C1347      H1360   1.111       .  S
C1361      C1362   1.398       .  A
C1361      C1366   1.407       .  A
C1361      H1371   1.085       .  S
C1362      C1367   1.488       .  S
C1362      C1363   1.406       .  A
C1363      C1368   1.507       .  S
C1363      C1364   1.405       .  A
C1364      C1365   1.416       .  A
C1364      H1369   1.077       .  S
C1365      C1366   1.430       .  A
C1366      C1370   1.510       .  S
C1367      C1372   1.410       .  A
C1367      C1376   1.398       .  A
C1368      H1384   1.110       .  S
C1368      H1385   1.110       .  S
C1368      H1386   1.111       .  S
C1370      H1381   1.111       .  S
C1370      H1382   1.110       .  S
C1370      H1383   1.102       .  S
C1372      C1377   1.505       .  S
C1372      C1373   1.409       .  A
C1373      C1374   1.409       .  A
C1373      H1378   1.084       .  S
C1374      C1375   1.425       .  A
C1375      C1379   1.509       .  S
C1375      C1376   1.404       .  A
C1376      H1380   1.084       .  S
C1377      H1387   1.111       .  S
C1377      H1388   1.110       .  S
C1377      H1389   1.110       .  S
C1379      H1390   1.110       .  S
C1379      H1391   1.110       .  S
C1379      H1392   1.111       .  S
C1393      C1394   1.400       .  A
C1393      C1398   1.403       .  A
C1393      H1403   1.085       .  S
C1394      C1399   1.484       .  S
C1394      C1395   1.411       .  A
C1395      C1400   1.505       .  S
C1395      C1396   1.407       .  A
C1396      C1397   1.405       .  A
C1396      H1401   1.084       .  S
C1397      C1398   1.418       .  A
C1398      C1402   1.509       .  S
C1399      C1404   1.410       .  A
C1399      C1408   1.399       .  A
C1400      H1416   1.110       .  S
C1400      H1417   1.110       .  S
C1400      H1418   1.111       .  S
C1402      H1413   1.110       .  S
C1402      H1414   1.111       .  S
C1402      H1415   1.106       .  S
C1404      C1409   1.506       .  S
C1404      C1405   1.405       .  A
C1405      C1406   1.407       .  A
C1405      H1410   1.084       .  S
C1406      C1407   1.422       .  A
C1407      C1411   1.508       .  S
C1407      C1408   1.405       .  A
C1408      H1412   1.085       .  S
C1409      H1419   1.111       .  S
C1409      H1420   1.110       .  S
C1409      H1421   1.110       .  S
C1411      H1422   1.110       .  S
C1411      H1423   1.105       .  S
C1411      H1424   1.111       .  S
C1425      C1426   1.402       .  A
C1425      C1430   1.408       .  A
C1425      H1435   1.084       .  S
C1426      C1431   1.488       .  S
C1426      C1427   1.411       .  A
C1427      C1432   1.507       .  S
C1427      C1428   1.405       .  A
C1428      C1429   1.403       .  A
C1428      H1433   1.080       .  S
C1429      C1430   1.419       .  A
C1430      C1434   1.507       .  S
C1431      C1436   1.410       .  A
C1431      C1440   1.398       .  A
C1432      H1448   1.110       .  S
C1432      H1449   1.111       .  S
C1432      H1450   1.111       .  S
C1434      H1445   1.110       .  S
C1434      H1446   1.111       .  S
C1434      H1447   1.105       .  S
C1436      C1441   1.505       .  S
C1436      C1437   1.408       .  A
C1437      C1438   1.407       .  A
C1437      H1442   1.084       .  S
C1438      C1439   1.425       .  A
C1439      C1443   1.510       .  S
C1439      C1440   1.406       .  A
C1440      H1444   1.084       .  S
C1441      H1451   1.111       .  S
C1441      H1452   1.110       .  S
C1441      H1453   1.111       .  S
C1443      H1454   1.107       .  S
C1443      H1455   1.110       .  S
C1443      H1456   1.111       .  S
C1457      C1458   1.401       .  A
C1457      C1462   1.402       .  A
C1457      H1467   1.085       .  S
C1458      C1463   1.484       .  S
C1458      C1459   1.410       .  A
C1459      C1464   1.505       .  S
C1459      C1460   1.407       .  A
C1460      C1461   1.405       .  A
C1460      H1465   1.082       .  S
C1461      C1462   1.414       .  A
C1462      C1466   1.507       .  S
C1463      C1468   1.406       .  A
C1463      C1472   1.399       .  A
C1464      H1480   1.110       .  S
C1464      H1481   1.110       .  S
C1464      H1482   1.111       .  S
C1466      H1477   1.110       .  S
C1466      H1478   1.110       .  S
C1466      H1479   1.107       .  S
C1468      C1473   1.506       .  S
C1468      C1469   1.403       .  A
C1469      C1470   1.412       .  A
C1469      H1474   1.084       .  S
C1470      C1471   1.424       .  A
C1471      C1475   1.503       .  S
C1471      C1472   1.406       .  A
C1472      H1476   1.085       .  S
C1473      H1483   1.111       .  S
C1473      H1484   1.110       .  S
C1473      H1485   1.110       .  S
C1475      H1486   1.111       .  S
C1475      H1487   1.092       .  S
C1475      H1488   1.110       .  S
C1489      C1490   1.398       .  A
C1489      C1494   1.410       .  A
C1489      H1499   1.084       .  S
C1490      C1495   1.490       .  S
C1490      C1491   1.406       .  A
C1491      C1496   1.508       .  S
C1491      C1492   1.406       .  A
C1492      C1493   1.416       .  A
C1492      H1497   1.073       .  S
C1493      C1494   1.434       .  A
C1494      C1498   1.515       .  S
C1495      C1500   1.411       .  A
C1495      C1504   1.397       .  A
C1496      H1512   1.110       .  S
C1496      H1513   1.109       .  S
C1496      H1514   1.111       .  S
C1498      H1509   1.106       .  S
C1498      H1510   1.111       .  S
C1498      H1511   1.105       .  S
C1500      C1505   1.505       .  S
C1500      C1501   1.412       .  A
C1501      C1502   1.410       .  A
C1501      H1506   1.083       .  S
C1502      C1503   1.427       .  A
C1503      C1507   1.510       .  S
C1503      C1504   1.405       .  A
C1504      H1508   1.085       .  S
C1505      H1515   1.111       .  S
C1505      H1516   1.110       .  S
C1505      H1517   1.110       .  S
C1507      H1518   1.111       .  S
C1507      H1519   1.110       .  S
C1507      H1520   1.110       .  S
C1521      C1522   1.397       .  A
C1521      C1526   1.404       .  A
C1521      H1531   1.084       .  S
C1522      C1527   1.481   1_556  S
C1522      C1523   1.409       .  A
C1523      C1528   1.506       .  S
C1523      C1524   1.405       .  A
C1524      C1525   1.406       .  A
C1524      H1529   1.082       .  S
C1525      C1526   1.423       .  A
C1526      C1530   1.506       .  S
C1527      C1532   1.411       .  A
C1527      C1536   1.401       .  A
C1528      H1544   1.110       .  S
C1528      H1545   1.110       .  S
C1528      H1546   1.111       .  S
C1530      H1541   1.111       .  S
C1530      H1542   1.106       .  S
C1530      H1543   1.104       .  S
C1532      C1537   1.507       .  S
C1532      C1533   1.403       .  A
C1533      C1534   1.404       .  A
C1533      H1538   1.084       .  S
C1534      C1535   1.417       .  A
C1535      C1539   1.507       .  S
C1535      C1536   1.403       .  A
C1536      H1540   1.085       .  S
C1537      H1547   1.111       .  S
C1537      H1548   1.110   1_554  S
C1537      H1549   1.110   1_554  S
C1539      H1550   1.111       .  S
C1539      H1551   1.107       .  S
C1539      H1552   1.110       .  S
C1553      C1554   1.403       .  A
C1553      C1558   1.405       .  A
C1553      H1563   1.084       .  S
C1554      C1559   1.488       .  S
C1554      C1555   1.414       .  A
C1555      C1560   1.507       .  S
C1555      C1556   1.405       .  A
C1556      C1557   1.400       .  A
C1556      H1561   1.083       .  S
C1557      C1558   1.415       .  A
C1558      C1562   1.508       .  S
C1559      C1564   1.413       .  A
C1559      C1568   1.399       .  A
C1560      H1576   1.109       .  S
C1560      H1577   1.110       .  S
C1560      H1578   1.111       .  S
C1562      H1573   1.110       .  S
C1562      H1574   1.110       .  S
C1562      H1575   1.107       .  S
C1564      C1569   1.506       .  S
C1564      C1565   1.408       .  A
C1565      C1566   1.406       .  A
C1565      H1570   1.084       .  S
C1566      C1567   1.420       .  A
C1567      C1571   1.503       .  S
C1567      C1568   1.402       .  A
C1568      H1572   1.085       .  S
C1569      H1579   1.111       .  S
C1569      H1580   1.110       .  S
C1569      H1581   1.110       .  S
C1571      H1582   1.111       .  S
C1571      H1583   1.096       .  S
C1571      H1584   1.110       .  S
C1585      C1586   1.398       .  A
C1585      C1590   1.402       .  A
C1585      H1595   1.084       .  S
C1586      C1591   1.488       .  S
C1586      C1587   1.413       .  A
C1587      C1592   1.506       .  S
C1587      C1588   1.410       .  A
C1588      C1589   1.408       .  A
C1588      H1593   1.084       .  S
C1589      C1590   1.424       .  A
C1590      C1594   1.509       .  S
C1591      C1596   1.408       .  A
C1591      C1600   1.396       .  A
C1592      H1608   1.109       .  S
C1592      H1609   1.110       .  S
C1592      H1610   1.111       .  S
C1594      H1605   1.110       .  S
C1594      H1606   1.111       .  S
C1594      H1607   1.110       .  S
C1596      C1601   1.508       .  S
C1596      C1597   1.407       .  A
C1597      C1598   1.417       .  A
C1597      H1602   1.075       .  S
C1598      C1599   1.431       .  A
C1599      C1603   1.506       .  S
C1599      C1600   1.403       .  A
C1600      H1604   1.085       .  S
C1601      H1611   1.111       .  S
C1601      H1612   1.109       .  S
C1601      H1613   1.110       .  S
C1603      H1614   1.110       .  S
C1603      H1615   1.095       .  S
C1603      H1616   1.111       .  S
C1617      C1618   1.399       .  A
C1617      C1622   1.403       .  A
C1617      H1627   1.084       .  S
C1618      C1623   1.478       .  S
C1618      C1619   1.409       .  A
C1619      C1624   1.506       .  S
C1619      C1620   1.403       .  A
C1620      C1621   1.406       .  A
C1620      H1625   1.084       .  S
C1621      C1622   1.419       .  A
C1622      C1626   1.508       .  S
C1623      C1628   1.408       .  A
C1623      C1632   1.399       .  A
C1624      H1640   1.110       .  S
C1624      H1641   1.110       .  S
C1624      H1642   1.111       .  S
C1626      H1637   1.110       .  S
C1626      H1638   1.111       .  S
C1626      H1639   1.111       .  S
C1628      C1633   1.506       .  S
C1628      C1629   1.403       .  A
C1629      C1630   1.407       .  A
C1629      H1634   1.084       .  S
C1630      C1631   1.421       .  A
C1631      C1635   1.509       .  S
C1631      C1632   1.403       .  A
C1632      H1636   1.084       .  S
C1633      H1643   1.111       .  S
C1633      H1644   1.110       .  S
C1633      H1645   1.110       .  S
C1635      H1646   1.111       .  S
C1635      H1647   1.110       .  S
C1635      H1648   1.110       .  S
C1649      C1650   1.404       .  A
C1649      C1654   1.414       .  A
C1649      H1659   1.084       .  S
C1650      C1655   1.491       .  S
C1650      C1651   1.409       .  A
C1651      C1656   1.508       .  S
C1651      C1652   1.403       .  A
C1652      C1653   1.410       .  A
C1652      H1657   1.083       .  S
C1653      C1654   1.421       .  A
C1654      C1658   1.505       .  S
C1655      C1660   1.412   1_565  A
C1655      C1664   1.402   1_565  A
C1656      H1672   1.110       .  S
C1656      H1673   1.110       .  S
C1656      H1674   1.111       .  S
C1658      H1669   1.111       .  S
C1658      H1670   1.110       .  S
C1658      H1671   1.110       .  S
C1660      C1665   1.507   1_545  S
C1660      C1661   1.408       .  A
C1661      C1662   1.406       .  A
C1661      H1666   1.084       .  S
C1662      C1663   1.419       .  A
C1663      C1667   1.507       .  S
C1663      C1664   1.408       .  A
C1664      H1668   1.084   1_545  S
C1665      H1675   1.111   1_565  S
C1665      H1676   1.110       .  S
C1665      H1677   1.110       .  S
C1667      H1678   1.111       .  S
C1667      H1679   1.107       .  S
C1667      H1680   1.110       .  S
C1681      C1682   1.400       .  A
C1681      C1686   1.408       .  A
C1681      H1691   1.084       .  S
C1682      C1687   1.493       .  S
C1682      C1683   1.411       .  A
C1683      C1688   1.506       .  S
C1683      C1684   1.411       .  A
C1684      C1685   1.410       .  A
C1684      H1689   1.084       .  S
C1685      C1686   1.424       .  A
C1686      C1690   1.508       .  S
C1687      C1692   1.413       .  A
C1687      C1696   1.401       .  A
C1688      H1704   1.110       .  S
C1688      H1705   1.109       .  S
C1688      H1706   1.111       .  S
C1690      H1701   1.111       .  S
C1690      H1702   1.110       .  S
C1690      H1703   1.110       .  S
C1692      C1697   1.506       .  S
C1692      C1693   1.408       .  A
C1693      C1694   1.405       .  A
C1693      H1698   1.083       .  S
C1694      C1695   1.421       .  A
C1695      C1699   1.507       .  S
C1695      C1696   1.408       .  A
C1696      H1700   1.084       .  S
C1697      H1707   1.111       .  S
C1697      H1708   1.110       .  S
C1697      H1709   1.109       .  S
C1699      H1710   1.110       .  S
C1699      H1711   1.106       .  S
C1699      H1712   1.111       .  S
C1713      C1714   1.401       .  A
C1713      C1718   1.406       .  A
C1713      H1723   1.085       .  S
C1714      C1719   1.483       .  S
C1714      C1715   1.410       .  A
C1715      C1720   1.507       .  S
C1715      C1716   1.401       .  A
C1716      C1717   1.405       .  A
C1716      H1721   1.084       .  S
C1717      C1718   1.422       .  A
C1718      C1722   1.509       .  S
C1719      C1724   1.409       .  A
C1719      C1728   1.399       .  A
C1720      H1736   1.109       .  S
C1720      H1737   1.110       .  S
C1720      H1738   1.111       .  S
C1722      H1733   1.110       .  S
C1722      H1734   1.111       .  S
C1722      H1735   1.104       .  S
C1724      C1729   1.506       .  S
C1724      C1725   1.405       .  A
C1725      C1726   1.409       .  A
C1725      H1730   1.083       .  S
C1726      C1727   1.422       .  A
C1727      C1731   1.508       .  S
C1727      C1728   1.404       .  A
C1728      H1732   1.084       .  S
C1729      H1739   1.111       .  S
C1729      H1740   1.110       .  S
C1729      H1741   1.110       .  S
C1731      H1742   1.111       .  S
C1731      H1743   1.110       .  S
C1731      H1744   1.110       .  S
C1745      C1746   1.399   1_655  A
C1745      C1750   1.405       .  A
C1745      H1755   1.084   1_655  S
C1746      C1751   1.490       .  S
C1746      C1747   1.410   1_455  A
C1747      C1752   1.505       .  S
C1747      C1748   1.410       .  A
C1748      C1749   1.410       .  A
C1748      H1753   1.083       .  S
C1749      C1750   1.425       .  A
C1750      C1754   1.509       .  S
C1751      C1756   1.412       .  A
C1751      C1760   1.401       .  A
C1752      H1768   1.110   1_655  S
C1752      H1769   1.110   1_655  S
C1752      H1770   1.111       .  S
C1754      H1765   1.111       .  S
C1754      H1766   1.110       .  S
C1754      H1767   1.110       .  S
C1756      C1761   1.506       .  S
C1756      C1757   1.410       .  A
C1757      C1758   1.407       .  A
C1757      H1762   1.084       .  S
C1758      C1759   1.419       .  A
C1759      C1763   1.508       .  S
C1759      C1760   1.405       .  A
C1760      H1764   1.084       .  S
C1761      H1771   1.111       .  S
C1761      H1772   1.110       .  S
C1761      H1773   1.110       .  S
C1763      H1774   1.109       .  S
C1763      H1775   1.111       .  S
C1763      H1776   1.111       .  S
C1777      C1778   1.403       .  A
C1777      C1782   1.404       .  A
C1777      H1787   1.085       .  S
C1778      C1783   1.495       .  S
C1778      C1779   1.415       .  A
C1779      C1784   1.506       .  S
C1779      C1780   1.411       .  A
C1780      C1781   1.404       .  A
C1780      H1785   1.083       .  S
C1781      C1782   1.416       .  A
C1782      C1786   1.508       .  S
C1783      C1788   1.414       .  A
C1783      C1792   1.401       .  A
C1784      H1800   1.109       .  S
C1784      H1801   1.110       .  S
C1784      H1802   1.111       .  S
C1786      H1797   1.110       .  S
C1786      H1798   1.110       .  S
C1786      H1799   1.107       .  S
C1788      C1793   1.507       .  S
C1788      C1789   1.409       .  A
C1789      C1790   1.409       .  A
C1789      H1794   1.084       .  S
C1790      C1791   1.424       .  A
C1791      C1795   1.507       .  S
C1791      C1792   1.409       .  A
C1792      H1796   1.084       .  S
C1793      H1803   1.111       .  S
C1793      H1804   1.109       .  S
C1793      H1805   1.111       .  S
C1795      H1806   1.110       .  S
C1795      H1807   1.110       .  S
C1795      H1808   1.111       .  S
C1809      C1810   1.403       .  A
C1809      C1814   1.410       .  A
C1809      H1819   1.084       .  S
C1810      C1815   1.491       .  S
C1810      C1811   1.412       .  A
C1811      C1816   1.508       .  S
C1811      C1812   1.405       .  A
C1812      C1813   1.408       .  A
C1812      H1817   1.084       .  S
C1813      C1814   1.420       .  A
C1814      C1818   1.507       .  S
C1815      C1820   1.412       .  A
C1815      C1824   1.400       .  A
C1816      H1832   1.109       .  S
C1816      H1833   1.111       .  S
C1816      H1834   1.111       .  S
C1818      H1829   1.111       .  S
C1818      H1830   1.109       .  S
C1818      H1831   1.111       .  S
C1820      C1825   1.506       .  S
C1820      C1821   1.408       .  A
C1821      C1822   1.409       .  A
C1821      H1826   1.083       .  S
C1822      C1823   1.424       .  A
C1823      C1827   1.508       .  S
C1823      C1824   1.406       .  A
C1824      H1828   1.084       .  S
C1825      H1835   1.111       .  S
C1825      H1836   1.109       .  S
C1825      H1837   1.110       .  S
C1827      H1838   1.111       .  S
C1827      H1839   1.110       .  S
C1827      H1840   1.110       .  S
