geometry optimzed in LAMMPS
_audit_creation_date              2020-11-30 
_audit_creation_method            'lammps2cif' 
_symmetry_space_group_name_H-M    'P1' 
_symmetry_Int_Tables_number       1 
_symmetry_cell_setting            triclinic 
loop_ 
_symmetry_equiv_pos_as_xyz 
  x,y,z 
_cell_length_a                    30.15387648 
_cell_length_b                    30.202249879202167 
_cell_length_c                    27.754196989701853 
_cell_angle_alpha                 89.80541922129622 
_cell_angle_beta                  90.07273770717104 
_cell_angle_gamma                 89.95914209993188 
loop_ 
_atom_site_label 
_atom_site_type_symbol 
_atom_site_fract_x 
_atom_site_fract_y 
_atom_site_fract_z 
_atom_site_charge 
C1          C  0.47521002  0.22574597  0.28294070     0.03600
C2          C  0.47372198  0.27215247  0.28328369    -0.12500
C3          C  0.49411986  0.29671302  0.24647536     0.01100
C4          C  0.51630524  0.27443060  0.20929509    -0.11100
C5          C  0.51793485  0.22806605  0.20880001     0.03600
C6          C  0.49714349  0.20383005  0.24545798    -0.10500
H7          H  0.45659557  0.28903399  0.31222121     0.09200
H8          H  0.53270890  0.29301708  0.18099688     0.06700
H9          H  0.49826139  0.16795429  0.24494957     0.06600
O10         O  0.48929675  0.36602202  0.28681686    -0.71300
O11         O  0.49988344  0.49128624  0.28968563    -0.71500
O12         O  0.43161590  0.43390372  0.28994572    -0.71400
O13         O  0.55729308  0.42316359  0.28628989    -0.71400
O14         O  0.55539670  0.43401248  0.20889927    -0.71300
O15         O  0.42990137  0.42658741  0.21212192    -0.71300
O16         O  0.48899092  0.49313283  0.21232317    -0.71300
O17         O  0.49657562  0.36772636  0.20895753    -0.71500
V18         V  0.49445548  0.42865717  0.28687762     1.35200
V19         V  0.49269173  0.43038681  0.21193465     1.35200
C20         C  0.49312124  0.34545078  0.24742469     0.78000
C21         C  0.49490075  0.51366911  0.25147085     0.78000
C22         C  0.40926666  0.43031759  0.25152523     0.77900
C23         C  0.57781902  0.42791036  0.24686315     0.77800
C24         C  0.69589047  0.44500578  0.20448652     0.03600
C25         C  0.71966804  0.42265388  0.24065015    -0.12500
C26         C  0.69726361  0.40218693  0.27904522     0.01100
C27         C  0.65079980  0.40397984  0.28096586    -0.11100
C28         C  0.62666391  0.42610788  0.24492197     0.03600
C29         C  0.64944247  0.44641604  0.20672907    -0.10500
H30         H  0.75558459  0.42174773  0.23932781     0.09200
H31         H  0.63354778  0.38813402  0.31060048     0.06700
H32         H  0.63112765  0.46389351  0.17892271     0.06600
C33         C  0.52112398  0.63164250  0.28888527     0.03600
C34         C  0.51813539  0.58514062  0.28947723    -0.12500
C35         C  0.49628036  0.56249717  0.25221391     0.01100
C36         C  0.47609517  0.58676929  0.21505626    -0.11100
C37         C  0.47817768  0.63306463  0.21447903     0.03600
C38         C  0.50180601  0.65530289  0.25049584    -0.10500
H39         H  0.53326515  0.56660430  0.31868245     0.09200
H40         H  0.45829578  0.56975631  0.18665647     0.06700
H41         H  0.50432894  0.69107249  0.24908541     0.06600
C42         C  0.29002887  0.40908727  0.21584572     0.03600
C43         C  0.33650192  0.40880305  0.21579365    -0.12500
C44         C  0.36035924  0.43029957  0.25236125     0.03900
C45         C  0.33718569  0.45207369  0.28918663    -0.11100
C46         C  0.29067137  0.45283022  0.28918625     0.03600
C47         C  0.26715395  0.43110244  0.25264702    -0.10500
H48         H  0.35398272  0.39169873  0.18726227     0.09200
H49         H  0.35520171  0.46911163  0.31739802     0.06700
H50         H  0.23120993  0.43156940  0.25267826     0.06600
C51         C  0.52397024  0.63112190  0.71114196     0.03600
C52         C  0.52379416  0.58474625  0.71266426    -0.12500
C53         C  0.50293905  0.56227630  0.75070178     0.01100
C54         C  0.48287208  0.58657866  0.78767809    -0.11100
C55         C  0.48241384  0.63301685  0.78628193     0.03600
C56         C  0.50273446  0.65513224  0.74762226    -0.10500
H57         H  0.54001503  0.56628014  0.68426535     0.09200
H58         H  0.46687075  0.56937904  0.81725705     0.06700
H59         H  0.50223694  0.69099013  0.74598754     0.06600
O60         O  0.49183610  0.36677286  0.71494329    -0.71300
O61         O  0.50410400  0.49172292  0.71290823    -0.71500
O62         O  0.56048358  0.42332188  0.71194454    -0.71400
O63         O  0.43535017  0.43553758  0.71611780    -0.71400
O64         O  0.43723975  0.42724208  0.79388117    -0.71300
O65         O  0.56295053  0.43284131  0.78946178    -0.71300
O66         O  0.49742443  0.49265993  0.79084273    -0.71300
O67         O  0.50298820  0.36709383  0.79228829    -0.71500
V68         V  0.49793989  0.42928879  0.71533574     1.35200
V69         V  0.50010554  0.42988359  0.79029872     1.35200
C70         C  0.49697075  0.34549499  0.75385772     0.78000
C71         C  0.50152889  0.51358595  0.75154911     0.78000
C72         C  0.58316132  0.42813052  0.74991736     0.77900
C73         C  0.41484728  0.43227969  0.75570276     0.77800
C74         C  0.29563076  0.41305805  0.79366035     0.03600
C75         C  0.34226059  0.41399751  0.79452550    -0.12500
C76         C  0.36603452  0.43427227  0.75698652     0.01100
C77         C  0.34287985  0.45564188  0.71973295    -0.11100
C78         C  0.29647364  0.45632389  0.71941243     0.03600
C79         C  0.27299857  0.43491710  0.75628201    -0.10500
H80         H  0.35997063  0.39768911  0.82358609     0.09200
H81         H  0.36088729  0.47174664  0.69079549     0.06700
H82         H  0.23706074  0.43474648  0.75539011     0.06600
C83         C  0.47260079  0.22687697  0.71845577     0.03600
C84         C  0.49406773  0.20381857  0.75588196    -0.12500
C85         C  0.51726916  0.22680061  0.79171802     0.01100
C86         C  0.51718197  0.27319647  0.79153854    -0.11100
C87         C  0.49607621  0.29670963  0.75438087     0.03600
C88         C  0.47473519  0.27334844  0.71737246    -0.10500
H89         H  0.49343970  0.16794540  0.75672716     0.09200
H90         H  0.53461409  0.29086232  0.81972547     0.06700
H91         H  0.45932720  0.29132227  0.68792783     0.06600
C92         C  0.70252532  0.45378882  0.78135549     0.03600
C93         C  0.65612646  0.45117459  0.78381363    -0.12500
C94         C  0.63194177  0.42920014  0.74795303     0.01100
C95         C  0.65453643  0.40916906  0.70969630    -0.11100
C96         C  0.70093006  0.41101795  0.70700052     0.03600
C97         C  0.72479530  0.43380694  0.74262555    -0.10500
H98         H  0.63885256  0.46670010  0.81353483     0.09200
H99         H  0.63610141  0.39176885  0.68206785     0.06700
H100        H  0.76063844  0.43550990  0.74051586     0.06600
C101        C  0.97975288  0.73036122  0.79251740     0.03600
C102        C  0.97999069  0.77681205  0.79134013    -0.12500
C103        C  0.00174060  0.79960351  0.75410423     0.01100
C104        C  0.02371539  0.77547259  0.71818642    -0.11100
C105        C  0.02549632  0.72900312  0.72021938     0.03600
C106        C  0.00319476  0.70666100  0.75742700    -0.10500
H107        H  0.96240397  0.79509087  0.81891026     0.09200
H108        H  0.04007988  0.79283630  0.68896998     0.06700
H109        H  0.00363042  0.67079253  0.75880460     0.06600
O110        O  0.99705775  0.99472325  0.71030300    -0.71300
O111        O  0.00596917  0.86919206  0.71337485    -0.71500
O112        O  0.93876091  0.92757288  0.71193408    -0.71400
O113        O  0.06433517  0.93623729  0.71161356    -0.71400
O114        O  0.06451867  0.92862189  0.78947308    -0.71300
O115        O  0.93883106  0.93789056  0.78935368    -0.71300
O116        O  0.99709184  0.87061827  0.79101739    -0.71300
O117        O  0.00619386  0.99603795  0.78793133    -0.71500
V118        V  0.00153915  0.93197782  0.71314567     1.35200
V119        V  0.00166994  0.93329405  0.78810783     1.35200
C120        C  0.00148953  0.01685926  0.74863120     0.78000
C121        C  0.00153264  0.84844106  0.75275004     0.78000
C122        C  0.91729776  0.93267355  0.75063679     0.77900
C123        C  0.08592151  0.93214074  0.75047199     0.77800
C124        C  0.20467068  0.90789624  0.78658459     0.03600
C125        C  0.15817657  0.90993018  0.78746453    -0.12500
C126        C  0.13482426  0.93115933  0.75018601     0.01100
C127        C  0.15846758  0.95086943  0.71222457    -0.11100
C128        C  0.20501383  0.94997404  0.71169355     0.03600
C129        C  0.22789040  0.92875807  0.74921445    -0.10500
H130        H  0.14027593  0.89416443  0.81668961     0.09200
H131        H  0.14074888  0.96736304  0.68327809     0.06700
H132        H  0.26383429  0.92809525  0.74909943     0.06600
C133        C  0.02220523  0.13642662  0.78308586     0.03600
C134        C  0.02198967  0.08994024  0.78421986    -0.12500
C135        C  0.00104097  0.06573567  0.74758626     0.01100
C136        C  0.97948138  0.08850196  0.71008602    -0.11100
C137        C  0.97851836  0.13497529  0.70920369     0.03600
C138        C  0.99981359  0.15874437  0.74589544    -0.10500
H139        H  0.03872404  0.07269663  0.81334036     0.09200
H140        H  0.96296456  0.07014302  0.68178336     0.06700
H141        H  0.99918648  0.19462790  0.74532566     0.06600
C142        C  0.79865587  0.90826951  0.71438950     0.03600
C143        C  0.77534095  0.93014918  0.75111277    -0.12500
C144        C  0.79807166  0.95335886  0.78727410     0.01100
C145        C  0.84463944  0.95288494  0.78771504    -0.11100
C146        C  0.86837997  0.93223741  0.75059669     0.03600
C147        C  0.84515383  0.91091646  0.71348148    -0.10500
H148        H  0.73941932  0.92924049  0.75151693     0.09200
H149        H  0.86233499  0.96949919  0.81644958     0.06700
H150        H  0.86329740  0.89532099  0.68444090     0.06600
C151        C  0.01992018  0.12918323  0.21420680     0.03600
C152        C  0.02075203  0.08271176  0.21370923    -0.12500
C153        C  0.00039068  0.05824746  0.25062481     0.01100
C154        C  0.97774351  0.08068925  0.28743046    -0.11100
C155        C  0.97454152  0.12710086  0.28678064     0.03600
C156        C  0.99622135  0.15106030  0.25043153    -0.10500
H157        H  0.03803918  0.06567116  0.18500960     0.09200
H158        H  0.96187435  0.06211512  0.31608312     0.06700
H159        H  0.99474081  0.18692126  0.25042597     0.06600
O160        O  0.00809256  0.98857020  0.21131599    -0.71300
O161        O  0.99983375  0.86315386  0.20924211    -0.71500
O162        O  0.94135740  0.92996805  0.20895331    -0.71400
O163        O  0.06692864  0.92144401  0.21159159    -0.71400
O164        O  0.06558153  0.92929927  0.28935416    -0.71300
O165        O  0.94007167  0.91983657  0.28647066    -0.71300
O166        O  0.00755903  0.86199561  0.28708347    -0.71300
O167        O  0.99773517  0.98735287  0.28874976    -0.71500
V168        V  0.00409367  0.92580904  0.21161682     1.35200
V169        V  0.00280942  0.92467543  0.28658494     1.35200
C170        C  0.00227491  0.00942311  0.25026324     0.78000
C171        C  0.00354619  0.84115095  0.24787429     0.78000
C172        C  0.91924944  0.92463700  0.24721675     0.77900
C173        C  0.08773950  0.92508064  0.25096990     0.77800
C174        C  0.80011767  0.90149641  0.28184478     0.03600
C175        C  0.84659833  0.90334946  0.28330028    -0.12500
C176        C  0.87041129  0.92386324  0.24605777     0.01100
C177        C  0.84733277  0.94350762  0.20763998    -0.11100
C178        C  0.80078133  0.94371118  0.20676873     0.03600
C179        C  0.77740609  0.92280639  0.24419093    -0.10500
H180        H  0.86420411  0.88809659  0.31311099     0.09200
H181        H  0.86555823  0.95942789  0.17875869     0.06700
H182        H  0.74147497  0.92298201  0.24395516     0.06600
C183        C  0.97964764  0.72321432  0.21020509     0.03600
C184        C  0.98074050  0.76966067  0.21049530    -0.12500
C185        C  0.00301611  0.79240675  0.24726961     0.01100
C186        C  0.02460682  0.76833090  0.28364856    -0.11100
C187        C  0.02475417  0.72189485  0.28300441     0.03600
C188        C  0.00156546  0.69947784  0.24669920    -0.10500
H189        H  0.96378710  0.78801568  0.18233736     0.09200
H190        H  0.04193831  0.78564913  0.31216326     0.06700
H191        H  0.00088693  0.66359508  0.24660140     0.06600
C192        C  0.20629029  0.94590660  0.28983882     0.03600
C193        C  0.22967363  0.92312587  0.25398660    -0.12500
C194        C  0.20701649  0.90094165  0.21710781     0.01100
C195        C  0.16047874  0.90273084  0.21560890    -0.11100
C196        C  0.13662425  0.92422093  0.25210793     0.03600
C197        C  0.15973806  0.94499547  0.28962700    -0.10500
H198        H  0.26561432  0.92294433  0.25458560     0.09200
H199        H  0.14286936  0.88674684  0.18639101     0.06700
H200        H  0.14157140  0.96162113  0.31797403     0.06600
O201        O  0.14487163  0.21587651  0.04778353    -0.71300
O202        O  0.20955977  0.28273746  0.95595920    -0.71500
O203        O  0.20708383  0.27906388  0.05265888    -0.71400
O204        O  0.14732116  0.21961786  0.95131181    -0.71400
O205        O  0.09486339  0.26864859  0.95349769    -0.71300
O206        O  0.15698408  0.33073090  0.05149105    -0.71300
O207        O  0.15745409  0.33216515  0.95479450    -0.71300
O208        O  0.09470111  0.26725459  0.05031162    -0.71500
V209        V  0.17623247  0.25032886  0.00195520     1.35200
V210        V  0.12695913  0.29874334  0.00247834     1.35200
C211        C  0.10879856  0.23013959  0.06497590     0.78000
C212        C  0.19444569  0.31870419  0.93920328     0.78000
C213        C  0.19225109  0.31503488  0.06938467     0.77900
C214        C  0.11059493  0.23366826  0.93532473     0.77800
O215        O  0.71721279  0.08182021  0.04782012    -0.71300
O216        O  0.65147636  0.14621418  0.95423852    -0.71500
O217        O  0.65426841  0.14471512  0.05081604    -0.71400
O218        O  0.71474587  0.08308671  0.95158644    -0.71400
O219        O  0.66468189  0.03167302  0.95352010    -0.71300
O220        O  0.60242300  0.09490633  0.05019887    -0.71300
O221        O  0.60148402  0.09456495  0.95391441    -0.71300
O222        O  0.66559210  0.03198390  0.05015830    -0.71500
V223        V  0.68342989  0.11300496  0.00108137     1.35200
V224        V  0.63455704  0.06423070  0.00191672     1.35200
C225        C  0.70257372  0.04603082  0.06529284     0.78000
C226        C  0.61491183  0.13162417  0.93852787     0.78000
C227        C  0.61773064  0.13063130  0.06702339     0.77900
C228        C  0.70066807  0.04623579  0.93636047     0.77800
O229        O  0.89531153  0.59751889  0.95360698    -0.71300
O230        O  0.82802227  0.53086620  0.04384808    -0.71500
O231        O  0.83197832  0.53550852  0.94717126    -0.71400
O232        O  0.89164705  0.59314376  0.04973878    -0.71400
O233        O  0.84178633  0.64492762  0.04934813    -0.71300
O234        O  0.78086453  0.58595717  0.94833785    -0.71300
O235        O  0.77837051  0.58279345  0.04510728    -0.71300
O236        O  0.84443085  0.64834700  0.95296358    -0.71500
V237        V  0.86070340  0.56519376  0.99863745     1.35200
V238        V  0.81227606  0.61446907  0.99890779     1.35200
C239        C  0.88165275  0.63456631  0.93830051     0.78000
C240        C  0.79185182  0.54567163  0.06035294     0.78000
C241        C  0.79631066  0.55095316  0.92991817     0.77900
C242        C  0.87739646  0.62934470  0.06650237     0.77800
O243        O  0.33759245  0.82911287  0.95283217    -0.71300
O244        O  0.40265043  0.76242986  0.04505204    -0.71500
O245        O  0.39992905  0.76581458  0.94833468    -0.71400
O246        O  0.34013952  0.82564870  0.04938990    -0.71400
O247        O  0.28763810  0.77670244  0.04699844    -0.71300
O248        O  0.35010563  0.71415394  0.95033437    -0.71300
O249        O  0.35008765  0.71337459  0.04686265    -0.71300
O250        O  0.28776218  0.77743775  0.95044283    -0.71500
V251        V  0.36912414  0.79478680  0.99892900     1.35200
V252        V  0.31988939  0.74638793  0.99867238     1.35200
C253        C  0.30176837  0.81445638  0.93542920     0.78000
C254        C  0.38737288  0.72661795  0.06188177     0.78000
C255        C  0.38521230  0.72959432  0.93205902     0.77900
C256        C  0.30323313  0.81184302  0.06492000     0.77800
O257        O  0.16447662  0.53522808  0.55495156    -0.71300
O258        O  0.10141364  0.59358277  0.45486837    -0.71500
O259        O  0.16573376  0.53184949  0.45840357    -0.71400
O260        O  0.10065114  0.59659971  0.55169722    -0.71400
O261        O  0.15084703  0.64790217  0.55071097    -0.71300
O262        O  0.21498070  0.58429282  0.45571985    -0.71300
O263        O  0.15094494  0.64563425  0.45394707    -0.71300
O264        O  0.21497908  0.58631841  0.55264301    -0.71500
V265        V  0.13402200  0.56533182  0.50487105     1.35200
V266        V  0.18197480  0.61504159  0.50331451     1.35200
C267        C  0.20029782  0.55097482  0.57121034     0.78000
C268        C  0.11538657  0.62961365  0.43726568     0.78000
C269        C  0.20140895  0.54708662  0.44113477     0.77900
C270        C  0.11473328  0.63318127  0.56751539     0.77800
O271        O  0.34931135  0.14233327  0.44985585    -0.71300
O272        O  0.28833089  0.08062603  0.54818873    -0.71500
O273        O  0.34999995  0.14412521  0.54683244    -0.71400
O274        O  0.28779094  0.07839270  0.45203912    -0.71400
O275        O  0.33901544  0.02804331  0.45402032    -0.71300
O276        O  0.40242581  0.09507104  0.54652094    -0.71300
O277        O  0.34064169  0.03137943  0.55078346    -0.71300
O278        O  0.40053116  0.09185826  0.44948737    -0.71500
V279        V  0.31995709  0.11047058  0.49919625     1.35200
V280        V  0.36973195  0.06256999  0.50018162     1.35200
C281        C  0.38461701  0.12716699  0.43186824     0.78000
C282        C  0.30410922  0.04583765  0.56678938     0.78000
C283        C  0.38661084  0.13044172  0.56356576     0.77900
C284        C  0.30240960  0.04155564  0.43736292     0.77800
O285        O  0.89324139  0.26176002  0.44848187    -0.71300
O286        O  0.82906053  0.32711571  0.54190999    -0.71500
O287        O  0.89248750  0.26439245  0.54502317    -0.71400
O288        O  0.83004882  0.32413883  0.44493252    -0.71400
O289        O  0.77963194  0.27299381  0.44626948    -0.71300
O290        O  0.84169819  0.21368330  0.54646880    -0.71300
O291        O  0.77865057  0.27600327  0.54313261    -0.71300
O292        O  0.84302376  0.21047732  0.45000689    -0.71500
V293        V  0.86020278  0.29342454  0.49514202     1.35200
V294        V  0.81167480  0.24434708  0.49641291     1.35200
C295        C  0.87949976  0.22469634  0.43367101     0.78000
C296        C  0.79302277  0.31246693  0.55892961     0.78000
C297        C  0.87785432  0.22858145  0.56269938     0.77900
C298        C  0.79448279  0.30835654  0.42790904     0.77800
O299        O  0.60527672  0.76370596  0.54827321    -0.71300
O300        O  0.66727888  0.82627207  0.45043854    -0.71500
O301        O  0.60549105  0.76260881  0.45136403    -0.71400
O302        O  0.66712556  0.82754022  0.54717212    -0.71400
O303        O  0.71833486  0.77721007  0.54906491    -0.71300
O304        O  0.65733607  0.71293550  0.45194287    -0.71300
O305        O  0.71937494  0.77684016  0.45236822    -0.71300
O306        O  0.65665675  0.71337822  0.54860834    -0.71500
V307        V  0.63727225  0.79405443  0.49934300     1.35200
V308        V  0.68692941  0.74605138  0.50042800     1.35200
C309        C  0.62062647  0.72799119  0.56545973     0.78000
C310        C  0.70416919  0.81250408  0.43493637     0.78000
C311        C  0.62098132  0.72680911  0.43484755     0.77900
C312        C  0.70313219  0.81343804  0.56483616     0.77800
C313        C  0.26463783  0.94955355  0.35294350    -0.11800
C314        C  0.23071961  0.97097035  0.32722822     0.05200
C315        C  0.22022816  0.01546083  0.33821383    -0.07100
C316        C  0.24325164  0.03689798  0.37530340    -0.07800
C317        C  0.27739553  0.01563548  0.40101734    -0.02400
C318        C  0.28784730  0.97108886  0.38981772     0.04500
N319        N  0.32078341  0.94665433  0.41616137     0.67000
H320        H  0.27231203  0.91523931  0.34520865     0.15900
H321        H  0.23544958  0.07121087  0.38279516     0.15600
N322        N  0.18789244  0.04000825  0.31085720     0.74700
O323        O  0.31699989  0.94188519  0.46117907    -0.38800
O324        O  0.34880909  0.92346381  0.39377802    -0.38700
O325        O  0.16395867  0.06862373  0.33133424    -0.39400
O326        O  0.18678585  0.03706102  0.26550278    -0.39500
C327        C  0.24440051  0.81334037  0.12761233    -0.11800
C328        C  0.27884662  0.83552845  0.10347279     0.05200
C329        C  0.29001470  0.87899235  0.11791144    -0.07100
C330        C  0.26675374  0.89902313  0.15562288    -0.07800
C331        C  0.23219353  0.87693507  0.17945072    -0.02400
C332        C  0.22144787  0.83312925  0.16584416     0.04500
N333        N  0.18894770  0.80761354  0.19169353     0.67000
H334        H  0.23622253  0.77962047  0.11782153     0.15900
H335        H  0.27487450  0.93278467  0.16538243     0.15600
N336        N  0.32372605  0.90396924  0.09379011     0.74700
O337        O  0.16536909  0.77959741  0.16979074    -0.38800
O338        O  0.18740621  0.80910635  0.23710710    -0.38700
O339        O  0.31854046  0.91485136  0.05021023    -0.39400
O340        O  0.35481466  0.92115503  0.11778072    -0.39500
C341        C  0.02571622  0.66639341  0.34904495    -0.11800
C342        C  0.04905839  0.69687842  0.32056741     0.05200
C343        C  0.09448451  0.70467719  0.33005494    -0.07100
C344        C  0.11493466  0.68277145  0.36878858    -0.07800
C345        C  0.09159653  0.65232242  0.39748682    -0.02400
C346        C  0.04648417  0.64408277  0.38715251     0.04500
N347        N  0.02066001  0.61481202  0.41630699     0.67000
H348        H  0.99077268  0.66061857  0.34232884     0.15900
H349        H  0.14980849  0.68867498  0.37567391     0.15600
N350        N  0.12056889  0.73358623  0.30010335     0.74700
O351        O  0.01671579  0.57474396  0.40432478    -0.38800
O352        O  0.99546415  0.63058787  0.44819399    -0.38700
O353        O  0.15224730  0.75532038  0.31807631    -0.39400
O354        O  0.11539553  0.73367696  0.25495280    -0.39500
C355        C  0.90936153  0.70914009  0.16661375    -0.11800
C356        C  0.95459365  0.69956391  0.17233117     0.05200
C357        C  0.97443204  0.66665235  0.14326719    -0.07100
C358        C  0.94806498  0.64348983  0.11010367    -0.07800
C359        C  0.90281923  0.65332226  0.10401536    -0.02400
C360        C  0.88349832  0.68667376  0.13272787     0.04500
N361        N  0.83744124  0.69737896  0.12899375     0.67000
H362        H  0.89384121  0.73401835  0.18907881     0.15900
H363        H  0.96349631  0.61867149  0.08754471     0.15600
N364        N  0.02126946  0.65749988  0.14554301     0.74700
O365        O  0.81085240  0.68351830  0.16069282    -0.38800
O366        O  0.82498773  0.72701315  0.09979917    -0.38700
O367        O  0.03561176  0.61920588  0.13614075    -0.39400
O368        O  0.04875510  0.68856741  0.15127213    -0.39500
C369        C  0.74056034  0.89989196  0.34359008    -0.11800
C370        C  0.77519720  0.87777729  0.32004082     0.05200
C371        C  0.78643530  0.83421961  0.33451647    -0.07100
C372        C  0.76355857  0.81457447  0.37298772    -0.07800
C373        C  0.72884227  0.83664141  0.39671952    -0.02400
C374        C  0.71750127  0.88011229  0.38181287     0.04500
N375        N  0.68383644  0.90533391  0.40577783     0.67000
H376        H  0.73230125  0.93353844  0.33322428     0.15900
H377        H  0.77202089  0.78097279  0.38325675     0.15600
N378        N  0.81953675  0.80880517  0.30950250     0.74700
O379        O  0.68743042  0.91337031  0.45022045    -0.38800
O380        O  0.65519300  0.92604658  0.38129448    -0.38700
O381        O  0.84362367  0.78169433  0.33234728    -0.39400
O382        O  0.82136461  0.80952264  0.26405631    -0.39500
C383        C  0.78968290  0.01168568  0.15785865    -0.11800
C384        C  0.77670003  0.96808351  0.16825410     0.05200
C385        C  0.73960856  0.94996522  0.14405663    -0.07100
C386        C  0.71550215  0.97664617  0.11182450    -0.07800
C387        C  0.72817287  0.02053225  0.10178981    -0.02400
C388        C  0.76604741  0.03802480  0.12514984     0.04500
N389        N  0.78046396  0.08270075  0.11741293     0.67000
H390        H  0.81762263  0.02611887  0.17673850     0.15900
H391        H  0.68737932  0.96236157  0.09318636     0.15600
N392        N  0.72696704  0.90435628  0.15025339     0.74700
O393        O  0.75538891  0.11447899  0.12869656    -0.38800
O394        O  0.82063336  0.09040528  0.10777431    -0.38700
O395        O  0.68670074  0.89322270  0.14732679    -0.39400
O396        O  0.75618615  0.87450478  0.15329450    -0.39500
C397        C  0.88374645  0.16394777  0.37329887    -0.11800
C398        C  0.90498717  0.19876662  0.39768900     0.05200
C399        C  0.94937937  0.20916889  0.38560884    -0.07100
C400        C  0.97080009  0.18552122  0.34913988    -0.07800
C401        C  0.94944083  0.15113132  0.32446903    -0.02400
C402        C  0.90511479  0.14037325  0.33644968     0.04500
N403        N  0.88063565  0.10734711  0.31029130     0.67000
H404        H  0.84953349  0.15611160  0.38159037     0.15900
H405        H  0.00499577  0.19343534  0.34073231     0.15600
N406        N  0.97376574  0.24271999  0.41065311     0.74700
O407        O  0.85182435  0.08415092  0.33158944    -0.38800
O408        O  0.88372100  0.10495443  0.26500798    -0.38700
O409        O  0.98052414  0.23896447  0.45538277    -0.39400
O410        O  0.99453509  0.27191284  0.38713258    -0.39500
C411        C  0.02023892  0.18852803  0.15202238    -0.11800
C412        C  0.04346380  0.15514351  0.17670897     0.05200
C413        C  0.08817110  0.14658044  0.16447922    -0.07100
C414        C  0.10784365  0.17062928  0.12687494    -0.07800
C415        C  0.08467788  0.20410513  0.10205674    -0.02400
C416        C  0.04011302  0.21296000  0.11487470     0.04500
N417        N  0.01399727  0.24545907  0.08986807     0.67000
H418        H  0.98578588  0.19482109  0.16077432     0.15900
H419        H  0.14229747  0.16424223  0.11828981     0.15600
N420        N  0.11467056  0.11527552  0.19111133     0.74700
O421        O  0.00874822  0.24261866  0.04485724    -0.38800
O422        O  0.99017261  0.27209711  0.11340522    -0.38700
O423        O  0.14445063  0.09326440  0.17001327    -0.39400
O424        O  0.11219562  0.11345901  0.23648595    -0.39500
C425        C  0.73788559  0.90309084  0.65385384    -0.11800
C426        C  0.77429070  0.88305528  0.67676738     0.05200
C427        C  0.78700931  0.83976372  0.66285222    -0.07100
C428        C  0.76376896  0.81840793  0.62574054    -0.07800
C429        C  0.72696340  0.83823554  0.60320006    -0.02400
C430        C  0.71388501  0.88107503  0.61799752     0.04500
N431        N  0.67635277  0.90290163  0.59716534     0.67000
H432        H  0.72787621  0.93627571  0.66388866     0.15900
H433        H  0.77377293  0.78527870  0.61555747     0.15600
N434        N  0.82199210  0.81622670  0.68718442     0.74700
O435        O  0.63788482  0.89351156  0.61185559    -0.38800
O436        O  0.68200557  0.93658456  0.57086718    -0.38700
O437        O  0.82469119  0.81703492  0.73256037    -0.39400
O438        O  0.84695830  0.79039944  0.66396156    -0.39500
C439        C  0.73971122  0.95571936  0.85047551    -0.11800
C440        C  0.77304500  0.97789490  0.82474059     0.05200
C441        C  0.78280636  0.02245909  0.83624708    -0.07100
C442        C  0.75939240  0.04331060  0.87349016    -0.07800
C443        C  0.72580757  0.02126670  0.89919652    -0.02400
C444        C  0.71643966  0.97652699  0.88781978     0.04500
N445        N  0.68489479  0.95103991  0.91482446     0.67000
H446        H  0.73277645  0.92128052  0.84260420     0.15900
H447        H  0.76664082  0.07767089  0.88133819     0.15600
N448        N  0.81502742  0.04756842  0.80948885     0.74700
O449        O  0.65708168  0.92712747  0.89301932    -0.38800
O450        O  0.68995659  0.94613758  0.95969357    -0.38700
O451        O  0.81632124  0.04524320  0.76409821    -0.39400
O452        O  0.83895959  0.07577228  0.83064542    -0.39500
C453        C  0.90871945  0.14942101  0.66473499    -0.11800
C454        C  0.95395386  0.15862056  0.67066118     0.05200
C455        C  0.97418183  0.19115123  0.64120071    -0.07100
C456        C  0.94828524  0.21399828  0.60707497    -0.07800
C457        C  0.90304183  0.20437890  0.60059055    -0.02400
C458        C  0.88323107  0.17157998  0.63004610     0.04500
N459        N  0.83709070  0.16105075  0.62634678     0.67000
H460        H  0.89290190  0.12490762  0.68758549     0.15900
H461        H  0.96405348  0.23853022  0.58426346     0.15600
N462        N  0.02093742  0.20037220  0.64423221     0.74700
O463        O  0.82393837  0.13581088  0.59312376    -0.38800
O464        O  0.81181748  0.16863134  0.66158269    -0.38700
O465        O  0.04842776  0.16935954  0.65072741    -0.39400
O466        O  0.03527623  0.23875915  0.63510024    -0.39500
C467        C  0.02188381  0.19305416  0.84773050    -0.11800
C468        C  0.04571356  0.16179966  0.82090960     0.05200
C469        C  0.09102081  0.15444681  0.83153909    -0.07100
C470        C  0.11096221  0.17798900  0.86933056    -0.07800
C471        C  0.08728865  0.20965443  0.89604545    -0.02400
C472        C  0.04210805  0.21709511  0.88481016     0.04500
N473        N  0.01577679  0.24786160  0.91144534     0.67000
H474        H  0.98704689  0.19857660  0.84007210     0.15900
H475        H  0.14574590  0.17230331  0.87699873     0.15600
N476        N  0.11755971  0.12440450  0.80357715     0.74700
O477        O  0.01816515  0.28864847  0.90177016    -0.38800
O478        O  0.98415559  0.23379872  0.93699286    -0.38700
O479        O  0.11372249  0.12324026  0.75828972    -0.39400
O480        O  0.14826983  0.10251272  0.82345015    -0.39500
C481        C  0.22078760  0.01798245  0.66501190    -0.11800
C482        C  0.22984271  0.97306360  0.67311542     0.05200
C483        C  0.26425847  0.95224368  0.64696424    -0.07100
C484        C  0.28899843  0.97722284  0.61378559    -0.07800
C485        C  0.27979099  0.02221498  0.60546420    -0.02400
C486        C  0.24561183  0.04293784  0.63216652     0.04500
N487        N  0.23681758  0.08953025  0.62813122     0.67000
H488        H  0.19531904  0.03432706  0.68600942     0.15900
H489        H  0.31458290  0.96088472  0.59299582     0.15600
N490        N  0.27350093  0.90572924  0.65230945     0.74700
O491        O  0.19730069  0.10329125  0.62634617    -0.38800
O492        O  0.26779086  0.11704207  0.63437763    -0.38700
O493        O  0.24221324  0.87825779  0.65674400    -0.39400
O494        O  0.31264259  0.89149386  0.64769329    -0.39500
C495        C  0.24429047  0.81697131  0.87119675    -0.11800
C496        C  0.27696208  0.83926467  0.89787234     0.05200
C497        C  0.28552947  0.88427879  0.88741469    -0.07100
C498        C  0.26160391  0.90582306  0.85104640    -0.07800
C499        C  0.22927385  0.88338109  0.82427233    -0.02400
C500        C  0.22085936  0.83818669  0.83403318     0.04500
N501        N  0.19022272  0.81291076  0.80545276     0.67000
H502        H  0.23797910  0.78221600  0.87811665     0.15900
H503        H  0.26809271  0.94052902  0.84387953     0.15600
N504        N  0.31754987  0.90902598  0.91406111     0.74700
O505        O  0.18886036  0.81796588  0.76030111    -0.38800
O506        O  0.16851027  0.78167014  0.82440700    -0.38700
O507        O  0.35667797  0.91229291  0.89838653    -0.39400
O508        O  0.30480843  0.93419764  0.94748352    -0.39500
C509        C  0.02722262  0.66954393  0.65858389    -0.11800
C510        C  0.04953073  0.70372778  0.68259156     0.05200
C511        C  0.09334566  0.71449289  0.66869078    -0.07100
C512        C  0.11293835  0.69191461  0.63007205    -0.07800
C513        C  0.09057820  0.65781689  0.60568733    -0.02400
C514        C  0.04697860  0.64664925  0.62035046     0.04500
N515        N  0.02160432  0.61327336  0.59618097     0.67000
H516        H  0.99341244  0.66154320  0.66856792     0.15900
H517        H  0.14673671  0.70003763  0.62024304     0.15600
N518        N  0.11908729  0.74665212  0.69462828     0.74700
O519        O  0.00064283  0.58475756  0.62047615    -0.38800
O520        O  0.01359194  0.61710199  0.55172372    -0.38700
O521        O  0.11726650  0.74823750  0.74002548    -0.39400
O522        O  0.14750903  0.76994352  0.67283949    -0.39500
C523        C  0.97685797  0.67792151  0.86148866    -0.11800
C524        C  0.95426204  0.70643171  0.82994209     0.05200
C525        C  0.90812374  0.71278959  0.83555768    -0.07100
C526        C  0.88567531  0.69010316  0.87231707    -0.07800
C527        C  0.90801767  0.66081623  0.90338157    -0.02400
C528        C  0.95454506  0.65575790  0.89879787     0.04500
N529        N  0.97992526  0.63028663  0.93290955     0.67000
H530        H  0.01246927  0.67418381  0.85806819     0.15900
H531        H  0.85006692  0.69406700  0.87537579     0.15600
N532        N  0.88330513  0.74073067  0.80330164     0.74700
O533        O  0.01300574  0.60814605  0.91895296    -0.38800
O534        O  0.97394077  0.63563813  0.97753801    -0.38700
O535        O  0.89010133  0.73921641  0.75845786    -0.39400
O536        O  0.85132256  0.76346414  0.81901474    -0.39500
C537        C  0.71485227  0.52182986  0.82945814    -0.11800
C538        C  0.72728699  0.47808187  0.81917086     0.05200
C539        C  0.76328682  0.45889272  0.84439107    -0.07100
C540        C  0.78591258  0.48409000  0.87898339    -0.07800
C541        C  0.77316068  0.52774661  0.88991384    -0.02400
C542        C  0.73752232  0.54703772  0.86393920     0.04500
N543        N  0.72470157  0.59236845  0.87068732     0.67000
H544        H  0.68792565  0.53700938  0.80940935     0.15900
H545        H  0.81275530  0.46865710  0.89887867     0.15600
N546        N  0.77610352  0.41351137  0.83706089     0.74700
O547        O  0.75296095  0.62279894  0.86524745    -0.38800
O548        O  0.68412441  0.60243536  0.87319751    -0.38700
O549        O  0.81632461  0.40230851  0.84065486    -0.39400
O550        O  0.74702131  0.38375091  0.83254633    -0.39500
C551        C  0.77668020  0.38307422  0.60169100    -0.11800
C552        C  0.76854832  0.33747881  0.59641350     0.05200
C553        C  0.73803181  0.31668639  0.62783726    -0.07100
C554        C  0.71658612  0.34155954  0.66326181    -0.07800
C555        C  0.72422531  0.38711390  0.66802023    -0.02400
C556        C  0.75443024  0.40831275  0.63660938     0.04500
N557        N  0.76181290  0.45532297  0.63857184     0.67000
H558        H  0.79963448  0.39950197  0.57753527     0.15900
H559        H  0.69386652  0.32500306  0.68762801     0.15600
N560        N  0.72954603  0.27011405  0.62570220     0.74700
O561        O  0.79958394  0.47102055  0.62894661    -0.38800
O562        O  0.72972161  0.48155562  0.64481049    -0.38700
O563        O  0.73942571  0.24593519  0.66131224    -0.39400
O564        O  0.70393960  0.25516725  0.59365009    -0.39500
C565        C  0.52008748  0.17420138  0.86039352    -0.11800
C566        C  0.54280751  0.20230109  0.82866299     0.05200
C567        C  0.58907425  0.20815968  0.83396720    -0.07100
C568        C  0.61141018  0.18569583  0.87107470    -0.07800
C569        C  0.58885758  0.15709651  0.90261417    -0.02400
C570        C  0.54231794  0.15219888  0.89791425     0.04500
N571        N  0.51681035  0.12723738  0.93224451     0.67000
H572        H  0.48442677  0.17081397  0.85706406     0.15900
H573        H  0.64704533  0.18937538  0.87420623     0.15600
N574        N  0.61403499  0.23548769  0.80121453     0.74700
O575        O  0.52258539  0.13325781  0.97680742    -0.38800
O576        O  0.48375459  0.10499178  0.91841482    -0.38700
O577        O  0.64728803  0.25684781  0.81610803    -0.39400
O578        O  0.60584118  0.23486950  0.75659485    -0.39500
C579        C  0.38770043  0.19090222  0.62443592    -0.11800
C580        C  0.40946865  0.15482536  0.60292231     0.05200
C581        C  0.45184309  0.14244373  0.62042918    -0.07100
C582        C  0.47156831  0.16669287  0.65759853    -0.07800
C583        C  0.44952174  0.20224179  0.67952281    -0.02400
C584        C  0.40661510  0.21406834  0.66311420     0.04500
N585        N  0.38098096  0.24794011  0.68648261     0.67000
H586        H  0.35481227  0.20021711  0.61232606     0.15900
H587        H  0.50447909  0.15735997  0.66969031     0.15600
N588        N  0.47527829  0.10508641  0.60160780     0.74700
O589        O  0.35525233  0.27230576  0.66213680    -0.38800
O590        O  0.37982801  0.25004813  0.73188770    -0.38700
O591        O  0.51303204  0.11053125  0.58293682    -0.39400
O592        O  0.46295335  0.06650390  0.61295634    -0.39500
C593        C  0.25598807  0.32294168  0.87974768    -0.11800
C594        C  0.21968680  0.34370965  0.90204283     0.05200
C595        C  0.20881465  0.38756912  0.88838198    -0.07100
C596        C  0.23450700  0.40954347  0.85375844    -0.07800
C597        C  0.27025504  0.38845175  0.83095205    -0.02400
C598        C  0.28072655  0.34426010  0.84375461     0.04500
N599        N  0.31476262  0.31979747  0.81919033     0.67000
H600        H  0.26430701  0.28907397  0.88907177     0.15900
H601        H  0.22616850  0.44339264  0.84429006     0.15600
N602        N  0.17198500  0.41048184  0.90914902     0.74700
O603        O  0.33858546  0.29252566  0.84213172    -0.38800
O604        O  0.31737968  0.32114435  0.77381091    -0.38700
O605        O  0.17861613  0.44528511  0.93313143    -0.39400
O606        O  0.13312186  0.40129040  0.89552665    -0.39500
C607        C  0.27933025  0.52521593  0.67464388    -0.11800
C608        C  0.27251230  0.47958606  0.68038513     0.05200
C609        C  0.24149391  0.45761952  0.65071433    -0.07100
C610        C  0.21770839  0.48214030  0.61634466    -0.07800
C611        C  0.22451460  0.52786115  0.61034617    -0.02400
C612        C  0.25521519  0.54981783  0.64061507     0.04500
N613        N  0.26066033  0.59706737  0.63925761     0.67000
H614        H  0.30232781  0.54214452  0.69831353     0.15900
H615        H  0.19466647  0.46497930  0.59296200     0.15600
N616        N  0.23473876  0.41051124  0.65387780     0.74700
O617        O  0.22708197  0.62200694  0.64115336    -0.38800
O618        O  0.29871916  0.61379524  0.64447758    -0.38700
O619        O  0.19718547  0.39416104  0.64453616    -0.39400
O620        O  0.26710951  0.38476091  0.66102800    -0.39500
C621        C  0.41469738  0.64644101  0.83434075    -0.11800
C622        C  0.45873588  0.65804215  0.82420917     0.05200
C623        C  0.47835231  0.69392288  0.84897508    -0.07100
C624        C  0.45306279  0.71748008  0.88276056    -0.07800
C625        C  0.40900355  0.70563642  0.89324979    -0.02400
C626        C  0.38954039  0.66987221  0.86804221     0.04500
N627        N  0.34400337  0.65765039  0.87479226     0.67000
H628        H  0.39915984  0.61965506  0.81464806     0.15900
H629        H  0.46859871  0.74431247  0.90232218     0.15600
N630        N  0.52411639  0.70574238  0.84189560     0.74700
O631        O  0.31372149  0.68562355  0.86678788    -0.38800
O632        O  0.33378351  0.61742462  0.88032939    -0.38700
O633        O  0.53613278  0.74564821  0.84533204    -0.39400
O634        O  0.55335053  0.67607201  0.83758197    -0.39500
C635        C  0.59368681  0.64970379  0.66901323    -0.11800
C636        C  0.54757310  0.65461010  0.67212540     0.05200
C637        C  0.52547034  0.68399952  0.64050312    -0.07100
C638        C  0.55036814  0.70841147  0.60698751    -0.07800
C639        C  0.59663341  0.70363360  0.60378206    -0.02400
C640        C  0.61861629  0.67431883  0.63582628     0.04500
N641        N  0.66613286  0.67086274  0.63710075     0.67000
H642        H  0.61063802  0.62795439  0.69416787     0.15900
H643        H  0.53324607  0.73025208  0.58210047     0.15600
N644        N  0.47794231  0.68840597  0.64093377     0.74700
O645        O  0.68955726  0.70541847  0.63967025    -0.38800
O646        O  0.68428963  0.63363304  0.64360294    -0.38700
O647        O  0.46006187  0.72483751  0.62975963    -0.39400
O648        O  0.45359956  0.65494761  0.64761937    -0.39500
C649        C  0.26493749  0.33950811  0.17803771    -0.11800
C650        C  0.26541280  0.38589391  0.17748683     0.05200
C651        C  0.24111649  0.40913128  0.14189506    -0.07100
C652        C  0.21620302  0.38506644  0.10811603    -0.07800
C653        C  0.21592077  0.33854766  0.10838206    -0.02400
C654        C  0.24006043  0.31550713  0.14432854     0.04500
N655        N  0.23801251  0.26811234  0.14861488     0.67000
H656        H  0.28293802  0.32191516  0.20599440     0.15900
H657        H  0.19832465  0.40274985  0.08015391     0.15600
N658        N  0.24257788  0.45670925  0.13847889     0.74700
O659        O  0.27204368  0.24649220  0.16098390    -0.38800
O660        O  0.20105610  0.24854025  0.14685343    -0.38700
O661        O  0.27796946  0.47739567  0.14757260    -0.39400
O662        O  0.21008269  0.47779489  0.12110079    -0.39500
C663        C  0.25207573  0.45391951  0.36788430    -0.11800
C664        C  0.26677374  0.47714884  0.32714263     0.05200
C665        C  0.26154932  0.52354596  0.32480705    -0.07100
C666        C  0.24165338  0.54572121  0.36350560    -0.07800
C667        C  0.22611384  0.52247902  0.40395591    -0.02400
C668        C  0.23221706  0.47607846  0.40672426     0.04500
N669        N  0.22072077  0.45148668  0.44941811     0.67000
H670        H  0.25750321  0.41848373  0.37003821     0.15900
H671        H  0.23668916  0.58122233  0.36119727     0.15600
N672        N  0.27557633  0.54841295  0.28328912     0.74700
O673        O  0.20882586  0.41153043  0.44624701    -0.38800
O674        O  0.22821503  0.46751567  0.49059165    -0.38700
O675        O  0.26749781  0.53439589  0.24138967    -0.39400
O676        O  0.29177790  0.58664944  0.28831888    -0.39500
C677        C  0.47928488  0.68155924  0.14228353    -0.11800
C678        C  0.45455005  0.65807876  0.17657459     0.05200
C679        C  0.40791538  0.65602308  0.17225895    -0.07100
C680        C  0.38714641  0.67748257  0.13347907    -0.07800
C681        C  0.41172544  0.70139821  0.09925256    -0.02400
C682        C  0.45854795  0.70258112  0.10307787     0.04500
N683        N  0.48556363  0.72260325  0.06634398     0.67000
H684        H  0.51514951  0.68182825  0.14496906     0.15900
H685        H  0.35127693  0.67682452  0.13103590     0.15600
N686        N  0.38118208  0.63336145  0.20745073     0.74700
O687        O  0.52121470  0.74188204  0.07762206    -0.38800
O688        O  0.47757974  0.71516410  0.02243271    -0.38700
O689        O  0.38999110  0.63652256  0.25179367    -0.39400
O690        O  0.34614189  0.61374723  0.19469484    -0.39500
C691        C  0.58803626  0.64082587  0.34054239    -0.11800
C692        C  0.54536391  0.65535856  0.32773826     0.05200
C693        C  0.52769750  0.69334072  0.35050761    -0.07100
C694        C  0.55361860  0.71631327  0.38418397    -0.07800
C695        C  0.59647608  0.70198571  0.39692833    -0.02400
C696        C  0.61380140  0.66366107  0.37442846     0.04500
N697        N  0.65776587  0.64796448  0.38427032     0.67000
H698        H  0.60221326  0.61224081  0.32274574     0.15900
H699        H  0.53941994  0.74503429  0.40164924     0.15600
N700        N  0.48309941  0.70813028  0.34140201     0.74700
O701        O  0.66388130  0.60772450  0.39480378    -0.38800
O702        O  0.69072170  0.67179783  0.37359856    -0.38700
O703        O  0.45177435  0.68052889  0.33871349    -0.39400
O704        O  0.47413277  0.74897580  0.34142445    -0.39500
C705        C  0.71194917  0.51490344  0.16120733    -0.11800
C706        C  0.71947961  0.46927603  0.16578910     0.05200
C707        C  0.75041814  0.44845579  0.13498757    -0.07100
C708        C  0.77379197  0.47425480  0.10125180    -0.07800
C709        C  0.76612497  0.52001038  0.09650442    -0.02400
C710        C  0.73456993  0.54028784  0.12693732     0.04500
N711        N  0.72629316  0.58689072  0.12504874     0.67000
H712        H  0.68861871  0.53117545  0.18504016     0.15900
H713        H  0.79738324  0.45818342  0.07761342     0.15600
N714        N  0.75751692  0.40133548  0.13641495     0.74700
O715        O  0.69958163  0.60217921  0.09414562    -0.38800
O716        O  0.73829280  0.61098994  0.15974620    -0.38700
O717        O  0.72534384  0.37525140  0.14285563    -0.39400
O718        O  0.79501340  0.38545338  0.12592336    -0.39500
C719        C  0.71489282  0.33361453  0.32447912    -0.11800
C720        C  0.72231803  0.37899919  0.31748725     0.05200
C721        C  0.75440614  0.40091504  0.34591333    -0.07100
C722        C  0.77829580  0.37665036  0.38056647    -0.07800
C723        C  0.77063064  0.33122593  0.38806240    -0.02400
C724        C  0.73911927  0.30928351  0.35869915     0.04500
N725        N  0.73271827  0.26221614  0.36135879     0.67000
H726        H  0.69109638  0.31663197  0.30180475     0.15900
H727        H  0.80200962  0.39385508  0.40309818     0.15600
N728        N  0.76204646  0.44780597  0.34139071     0.74700
O729        O  0.69414056  0.24624306  0.35827373    -0.38800
O730        O  0.76566761  0.23653333  0.35850471    -0.38700
O731        O  0.73011715  0.47405437  0.33403606    -0.39400
O732        O  0.80002701  0.46360331  0.34976465    -0.39500
C733        C  0.58882857  0.20731208  0.17063309    -0.11800
C734        C  0.54244455  0.20472361  0.17063761     0.05200
C735        C  0.52063515  0.17758465  0.13666454    -0.07100
C736        C  0.54616275  0.15297377  0.10399887    -0.07800
C737        C  0.59266615  0.15583451  0.10361895    -0.02400
C738        C  0.61403548  0.18326348  0.13751262     0.04500
N739        N  0.66129837  0.18493260  0.14079879     0.67000
H740        H  0.60562460  0.22743720  0.19729287     0.15900
H741        H  0.52950575  0.13240435  0.07770335     0.15600
N742        N  0.47296760  0.17538986  0.13414238     0.74700
O743        O  0.68240348  0.21375787  0.11714056    -0.38800
O744        O  0.68078106  0.16361598  0.17379003    -0.38700
O745        O  0.44968717  0.20929813  0.14234731    -0.39400
O746        O  0.45416286  0.14085927  0.11877969    -0.39500
C747        C  0.40705489  0.20500734  0.32683157    -0.11800
C748        C  0.45296357  0.20017178  0.32136652     0.05200
C749        C  0.47617919  0.16959660  0.35068609    -0.07100
C750        C  0.45278968  0.14505096  0.38535549    -0.07800
C751        C  0.40688490  0.15053435  0.39161512    -0.02400
C752        C  0.38353609  0.17989868  0.36075491     0.04500
N753        N  0.33596836  0.18297051  0.36149159     0.67000
H754        H  0.38912727  0.22728805  0.30307653     0.15900
H755        H  0.47092942  0.12272226  0.40883100     0.15600
N756        N  0.52343577  0.16414253  0.34689728     0.74700
O757        O  0.31725043  0.21990041  0.35483787    -0.38800
O758        O  0.31278484  0.14817658  0.36057749    -0.38700
O759        O  0.54833633  0.19738915  0.34156187    -0.39400
O760        O  0.54075477  0.12651629  0.35337333    -0.39500
loop_ 
_geom_bond_atom_site_label_1 
_geom_bond_atom_site_label_2 
_geom_bond_distance 
_geom_bond_site_symmetry_2 
_ccdc_geom_bond_type 
C1            C2   1.402       .  A
C1            C6   1.401       .  A
C1          C748   1.477       .  S
C2            C3   1.403       .  A
C2            H7   1.084       .  S
C3            C4   1.404       .  A
C3           C20   1.473       .  S
C4            C5   1.401       .  A
C4            H8   1.084       .  S
C5            C6   1.400       .  A
C5          C734   1.474       .  S
C6            H9   1.084       .  S
O10          V18   1.898       .  S
O10          C20   1.265       .  A
O11          V18   1.901       .  S
O11          C21   1.265       .  A
O12          V18   1.903       .  S
O12          C22   1.266       .  A
O13          V18   1.902       .  S
O13          C23   1.266       .  A
O14          V19   1.896       .  S
O14          C23   1.264       .  A
O15          V19   1.897       .  S
O15          C22   1.264       .  A
O16          V19   1.898       .  S
O16          C21   1.265       .  A
O17          V19   1.898       .  S
O17          C20   1.264       .  A
V18          V19   2.081       .  T
C21          C35   1.476       .  S
C22          C44   1.475       .  S
C23          C28   1.475       .  S
C24          C25   1.404       .  A
C24          C29   1.403       .  A
C24         C706   1.481       .  S
C25          C26   1.404       .  A
C25          H30   1.084       .  S
C26          C27   1.403       .  A
C26         C720   1.480       .  S
C27          C28   1.404       .  A
C27          H31   1.084       .  S
C28          C29   1.403       .  A
C29          H32   1.084       .  S
C33          C34   1.407       .  A
C33          C38   1.406       .  A
C33         C692   1.488       .  S
C34          C35   1.405       .  A
C34          H39   1.084       .  S
C35          C36   1.401       .  A
C36          C37   1.400       .  A
C36          H40   1.084       .  S
C37          C38   1.401       .  A
C37         C678   1.475       .  S
C38          H41   1.084       .  S
C42          C43   1.401       .  A
C42          C47   1.402       .  A
C42         C650   1.476       .  S
C43          C44   1.404       .  A
C43          H48   1.084       .  S
C44          C45   1.404       .  A
C45          C46   1.403       .  A
C45          H49   1.084       .  S
C46          C47   1.402       .  A
C46         C664   1.475       .  S
C47          H50   1.084       .  S
C51          C52   1.401       .  A
C51          C56   1.402       .  A
C51         C636   1.476       .  S
C52          C53   1.403       .  A
C52          H57   1.084       .  S
C53          C54   1.401       .  A
C53          C71   1.471       .  S
C54          C55   1.403       .  A
C54          H58   1.084       .  S
C55          C56   1.404       .  A
C55         C622   1.482       .  S
C56          H59   1.084       .  S
O60          V68   1.897       .  S
O60          C70   1.264       .  A
O61          V68   1.896       .  S
O61          C71   1.264       .  A
O62          V68   1.897       .  S
O62          C72   1.264       .  A
O63          V68   1.897       .  S
O63          C73   1.265       .  A
O64          V69   1.900       .  S
O64          C73   1.264       .  A
O65          V69   1.897       .  S
O65          C72   1.264       .  A
O66          V69   1.898       .  S
O66          C71   1.265       .  A
O67          V69   1.899       .  S
O67          C70   1.265       .  A
V68          V69   2.082       .  T
C70          C87   1.474       .  S
C72          C94   1.472       .  S
C73          C76   1.474       .  S
C74          C75   1.407       .  A
C74          C79   1.404       .  A
C74         C597   1.485       .  S
C75          C76   1.404       .  A
C75          H80   1.084       .  S
C76          C77   1.402       .  A
C77          C78   1.399       .  A
C77          H81   1.084       .  S
C78          C79   1.401       .  A
C78         C608   1.477       .  S
C79          H82   1.084       .  S
C83          C84   1.406       .  A
C83          C88   1.405       .  A
C83         C583   1.487       .  S
C84          C85   1.401       .  A
C84          H89   1.084       .  S
C85          C86   1.401       .  A
C85         C566   1.478       .  S
C86          C87   1.402       .  A
C86          H90   1.084       .  S
C87          C88   1.404       .  A
C88          H91   1.084       .  S
C92          C93   1.403       .  A
C92          C97   1.406       .  A
C92         C538   1.484       .  S
C93          C94   1.402       .  A
C93          H98   1.084       .  S
C94          C95   1.401       .  A
C95          C96   1.402       .  A
C95          H99   1.084       .  S
C96          C97   1.405       .  A
C96         C555   1.480       .  S
C97         H100   1.084       .  S
C101        C102   1.403       .  A
C101        C106   1.402   1_655  A
C101        C524   1.480       .  S
C102        C103   1.403   1_655  A
C102        H107   1.084       .  S
C103        C104   1.404       .  A
C103        C121   1.475       .  S
C104        C105   1.405       .  A
C104        H108   1.084       .  S
C105        C106   1.404       .  A
C105        C510   1.485       .  S
C106        H109   1.084       .  S
O110        V118   1.901   1_655  S
O110        C120   1.265   1_665  A
O111        V118   1.901       .  S
O111        C121   1.265       .  A
O112        V118   1.898   1_655  S
O112        C122   1.265       .  A
O113        V118   1.899       .  S
O113        C123   1.265       .  A
O114        V119   1.901       .  S
O114        C123   1.265       .  A
O115        V119   1.900   1_655  S
O115        C122   1.265       .  A
O116        V119   1.900   1_655  S
O116        C121   1.265   1_655  A
O117        V119   1.900       .  S
O117        C120   1.265   1_565  A
V118        V119   2.081       .  T
C120        C135   1.476       .  S
C122        C146   1.475       .  S
C123        C126   1.475       .  S
C124        C125   1.404       .  A
C124        C129   1.400       .  A
C124        C499   1.478       .  S
C125        C126   1.404       .  A
C125        H130   1.084       .  S
C126        C127   1.404       .  A
C127        C128   1.404       .  A
C127        H131   1.084       .  S
C128        C129   1.401       .  A
C128        C482   1.480       .  S
C129        H132   1.084       .  S
C133        C134   1.404       .  A
C133        C138   1.403   1_455  A
C133        C468   1.482       .  S
C134        C135   1.404       .  A
C134        H139   1.084       .  S
C135        C136   1.404   1_455  A
C136        C137   1.404       .  A
C136        H140   1.084       .  S
C137        C138   1.403       .  A
C137        C454   1.482       .  S
C138        H141   1.084       .  S
C142        C143   1.406       .  A
C142        C147   1.405       .  A
C142        C426   1.488       .  S
C143        C144   1.404       .  A
C143        H148   1.084       .  S
C144        C145   1.404       .  A
C144        C440   1.485       .  S
C145        C146   1.403       .  A
C145        H149   1.084       .  S
C146        C147   1.403       .  A
C147        H150   1.084       .  S
C151        C152   1.404       .  A
C151        C156   1.401   1_455  A
C151        C412   1.483       .  S
C152        C153   1.403       .  A
C152        H157   1.084       .  S
C153        C154   1.405   1_455  A
C153        C170   1.476       .  S
C154        C155   1.405       .  A
C154        H158   1.084       .  S
C155        C156   1.402       .  A
C155        C401   1.483       .  S
C156        H159   1.084       .  S
O160        V168   1.899       .  S
O160        C170   1.265   1_565  A
O161        V168   1.898   1_655  S
O161        C171   1.264   1_655  A
O162        V168   1.897   1_655  S
O162        C172   1.264       .  A
O163        V168   1.899       .  S
O163        C173   1.265       .  A
O164        V169   1.900       .  S
O164        C173   1.265       .  A
O165        V169   1.898   1_655  S
O165        C172   1.265       .  A
O166        V169   1.898       .  S
O166        C171   1.265       .  A
O167        V169   1.900   1_655  S
O167        C170   1.265   1_665  A
V168        V169   2.081       .  T
C171        C185   1.472       .  S
C172        C176   1.473       .  S
C173        C196   1.475       .  S
C174        C175   1.403       .  A
C174        C179   1.403       .  A
C174        C370   1.483       .  S
C175        C176   1.402       .  A
C175        H180   1.084       .  S
C176        C177   1.402       .  A
C177        C178   1.404       .  A
C177        H181   1.084       .  S
C178        C179   1.404       .  A
C178        C384   1.484       .  S
C179        H182   1.083       .  S
C183        C184   1.403       .  A
C183        C188   1.403   1_655  A
C183        C356   1.480       .  S
C184        C185   1.403   1_655  A
C184        H189   1.084       .  S
C185        C186   1.402       .  A
C186        C187   1.403       .  A
C186        H190   1.084       .  S
C187        C188   1.402       .  A
C187        C342   1.479       .  S
C188        H191   1.084       .  S
C192        C193   1.402       .  A
C192        C197   1.404       .  A
C192        C314   1.482       .  S
C193        C194   1.402       .  A
C193        H198   1.084       .  S
C194        C195   1.405       .  A
C194        C331   1.483       .  S
C195        C196   1.404       .  A
C195        H199   1.084       .  S
C196        C197   1.402       .  A
C197        H200   1.084       .  S
O201        V209   1.895       .  S
O201        C211   1.264       .  A
O202        V209   1.896   1_556  S
O202        C212   1.265       .  A
O203        V209   1.899       .  S
O203        C213   1.265       .  A
O204        V209   1.898   1_556  S
O204        C214   1.265       .  A
O205        V210   1.902   1_556  S
O205        C214   1.265       .  A
O206        V210   1.900       .  S
O206        C213   1.264       .  A
O207        V210   1.900   1_556  S
O207        C212   1.264       .  A
O208        V210   1.900       .  S
O208        C211   1.264       .  A
V209        V210   2.084       .  T
C211        C415   1.484       .  S
C212        C594   1.487       .  S
C213        C653   1.480       .  S
C214        C471   1.487       .  S
O215        V223   1.896       .  S
O215        C225   1.263       .  A
O216        V223   1.900   1_556  S
O216        C226   1.265       .  A
O217        V223   1.899       .  S
O217        C227   1.264       .  A
O218        V223   1.899   1_556  S
O218        C228   1.265       .  A
O219        V224   1.899   1_556  S
O219        C228   1.264       .  A
O220        V224   1.898       .  S
O220        C227   1.264       .  A
O221        V224   1.896   1_556  S
O221        C226   1.264       .  A
O222        V224   1.898       .  S
O222        C225   1.265       .  A
V223        V224   2.085       .  T
C225        C387   1.486       .  S
C226        C569   1.481       .  S
C227        C737   1.479       .  S
C228        C443   1.488       .  S
O229        V237   1.898       .  S
O229        C239   1.264       .  A
O230        V237   1.902   1_554  S
O230        C240   1.265       .  A
O231        V237   1.898       .  S
O231        C241   1.265       .  A
O232        V237   1.898   1_554  S
O232        C242   1.265       .  A
O233        V238   1.899   1_554  S
O233        C242   1.264       .  A
O234        V238   1.901       .  S
O234        C241   1.265       .  A
O235        V238   1.898   1_554  S
O235        C240   1.264       .  A
O236        V238   1.900       .  S
O236        C239   1.265       .  A
V237        V238   2.084       .  T
C239        C527   1.482       .  S
C240        C709   1.486       .  S
C241        C541   1.488       .  S
C242        C359   1.483       .  S
O243        V251   1.898       .  S
O243        C253   1.264       .  A
O244        V251   1.898   1_554  S
O244        C254   1.264       .  A
O245        V251   1.900       .  S
O245        C255   1.265       .  A
O246        V251   1.899   1_554  S
O246        C256   1.264       .  A
O247        V252   1.896   1_554  S
O247        C256   1.264       .  A
O248        V252   1.894       .  S
O248        C255   1.263       .  A
O249        V252   1.897   1_554  S
O249        C254   1.264       .  A
O250        V252   1.896       .  S
O250        C253   1.265       .  A
V251        V252   2.084       .  T
C253        C496   1.483       .  S
C254        C681   1.479       .  S
C255        C625   1.485       .  S
C256        C328   1.485       .  S
O257        V265   1.894       .  S
O257        C267   1.264       .  A
O258        V265   1.899       .  S
O258        C268   1.264       .  A
O259        V265   1.900       .  S
O259        C269   1.265       .  A
O260        V265   1.898       .  S
O260        C270   1.264       .  A
O261        V266   1.899       .  S
O261        C270   1.266       .  A
O262        V266   1.900       .  S
O262        C269   1.264       .  A
O263        V266   1.896       .  S
O263        C268   1.265       .  A
O264        V266   1.899       .  S
O264        C267   1.264       .  A
V265        V266   2.086       .  T
C267        C611   1.481       .  S
C268        C345   1.482       .  S
C269        C667   1.476       .  S
C270        C513   1.488       .  S
O271        V279   1.892       .  S
O271        C281   1.263       .  A
O272        V279   1.889       .  S
O272        C282   1.262       .  A
O273        V279   1.900       .  S
O273        C283   1.266       .  A
O274        V279   1.897       .  S
O274        C284   1.265       .  A
O275        V280   1.896       .  S
O275        C284   1.263       .  A
O276        V280   1.896       .  S
O276        C283   1.263       .  A
O277        V280   1.904       .  S
O277        C282   1.266       .  A
O278        V280   1.903       .  S
O278        C281   1.266       .  A
V279        V280   2.084       .  T
C281        C751   1.481       .  S
C282        C485   1.482       .  S
C283        C580   1.488       .  S
C284        C317   1.484       .  S
O285        V293   1.896       .  S
O285        C295   1.264       .  A
O286        V293   1.901       .  S
O286        C296   1.265       .  A
O287        V293   1.903       .  S
O287        C297   1.266       .  A
O288        V293   1.902       .  S
O288        C298   1.266       .  A
O289        V294   1.899       .  S
O289        C298   1.264       .  A
O290        V294   1.896       .  S
O290        C297   1.263       .  A
O291        V294   1.897       .  S
O291        C296   1.263       .  A
O292        V294   1.900       .  S
O292        C295   1.265       .  A
V293        V294   2.084       .  T
C295        C398   1.486       .  S
C296        C552   1.485       .  S
C297        C457   1.486       .  S
C298        C723   1.486       .  S
O299        V307   1.900       .  S
O299        C309   1.265       .  A
O300        V307   1.898       .  S
O300        C310   1.264       .  A
O301        V307   1.897       .  S
O301        C311   1.265       .  A
O302        V307   1.898       .  S
O302        C312   1.264       .  A
O303        V308   1.900       .  S
O303        C312   1.266       .  A
O304        V308   1.901       .  S
O304        C311   1.265       .  A
O305        V308   1.897       .  S
O305        C310   1.265       .  A
O306        V308   1.895       .  S
O306        C309   1.263       .  A
V307        V308   2.084       .  T
C309        C639   1.481       .  S
C310        C373   1.486       .  S
C311        C695   1.490       .  S
C312        C429   1.488       .  S
C313        C314   1.403       .  A
C313        C318   1.401       .  A
C313        H320   1.084       .  S
C314        C315   1.415   1_565  A
C315        C316   1.401       .  A
C315        N322   1.439       .  S
C316        C317   1.406       .  A
C316        H321   1.083       .  S
C317        C318   1.417   1_545  A
C318        N319   1.435       .  S
N319        O323   1.263       .  A
N319        O324   1.263       .  A
N322        O326   1.263       .  A
N322        O325   1.263       .  A
C327        C328   1.406       .  A
C327        C332   1.403       .  A
C327        H334   1.083       .  S
C328        C329   1.415       .  A
C329        C330   1.400       .  A
C329        N336   1.432       .  S
C330        C331   1.403       .  A
C330        H335   1.084       .  S
C331        C332   1.415       .  A
C332        N333   1.438       .  S
N333        O337   1.263       .  A
N333        O338   1.262       .  A
N336        O340   1.262       .  A
N336        O339   1.262       .  A
C341        C342   1.402       .  A
C341        C346   1.399       .  A
C341        H348   1.084   1_455  S
C342        C343   1.415       .  A
C343        C344   1.402       .  A
C343        N350   1.439       .  S
C344        C345   1.405       .  A
C344        H349   1.084       .  S
C345        C346   1.412       .  A
C346        N347   1.428       .  S
N347        O351   1.262       .  A
N347        O352   1.262   1_455  A
N350        O354   1.263       .  A
N350        O353   1.263       .  A
C355        C356   1.403       .  A
C355        C360   1.399       .  A
C355        H362   1.084       .  S
C356        C357   1.415       .  A
C357        C358   1.404       .  A
C357        N364   1.440   1_655  S
C358        C359   1.406       .  A
C358        H363   1.083       .  S
C359        C360   1.412       .  A
C360        N361   1.429       .  S
N361        O365   1.262       .  A
N361        O366   1.262       .  A
N364        O368   1.263       .  A
N364        O367   1.263       .  A
C369        C370   1.403       .  A
C369        C374   1.401       .  A
C369        H376   1.084       .  S
C370        C371   1.415       .  A
C371        C372   1.402       .  A
C371        N378   1.439       .  S
C372        C373   1.406       .  A
C372        H377   1.083       .  S
C373        C374   1.417       .  A
C374        N375   1.434       .  S
N375        O379   1.262       .  A
N375        O380   1.263       .  A
N378        O382   1.263       .  A
N378        O381   1.263       .  A
C383        C384   1.403   1_545  A
C383        C388   1.399       .  A
C383        H390   1.084       .  S
C384        C385   1.415       .  A
C385        C386   1.404       .  A
C385        N392   1.439       .  S
C386        C387   1.407   1_565  A
C386        H391   1.083       .  S
C387        C388   1.416       .  A
C388        N389   1.433       .  S
N389        O393   1.262       .  A
N389        O394   1.262       .  A
N392        O396   1.263       .  A
N392        O395   1.263       .  A
C397        C398   1.407       .  A
C397        C402   1.405       .  A
C397        H404   1.083       .  S
C398        C399   1.416       .  A
C399        C400   1.399       .  A
C399        N406   1.434       .  S
C400        C401   1.403       .  A
C400        H405   1.084   1_655  S
C401        C402   1.416       .  A
C402        N403   1.439       .  S
N403        O407   1.263       .  A
N403        O408   1.263       .  A
N406        O410   1.262       .  A
N406        O409   1.263       .  A
C411        C412   1.403       .  A
C411        C416   1.401       .  A
C411        H418   1.084   1_455  S
C412        C413   1.414       .  A
C413        C414   1.402       .  A
C413        N420   1.439       .  S
C414        C415   1.406       .  A
C414        H419   1.084       .  S
C415        C416   1.416       .  A
C416        N417   1.435       .  S
N417        O421   1.262       .  A
N417        O422   1.263   1_455  A
N420        O424   1.263       .  A
N420        O423   1.263       .  A
C425        C426   1.404       .  A
C425        C430   1.400       .  A
C425        H432   1.084       .  S
C426        C427   1.417       .  A
C427        C428   1.404       .  A
C427        N434   1.438       .  S
C428        C429   1.406       .  A
C428        H433   1.083       .  S
C429        C430   1.415       .  A
C430        N431   1.430       .  S
N431        O435   1.262       .  A
N431        O436   1.262       .  A
N434        O438   1.263       .  A
N434        O437   1.262       .  A
C439        C440   1.403       .  A
C439        C444   1.403       .  A
C439        H446   1.084       .  S
C440        C441   1.415   1_565  A
C441        C442   1.403       .  A
C441        N448   1.439       .  S
C442        C443   1.406       .  A
C442        H447   1.083       .  S
C443        C444   1.417   1_545  A
C444        N445   1.435       .  S
N445        O449   1.262       .  A
N445        O450   1.263       .  A
N448        O452   1.263       .  A
N448        O451   1.263       .  A
C453        C454   1.402       .  A
C453        C458   1.399       .  A
C453        H460   1.084       .  S
C454        C455   1.415       .  A
C455        C456   1.406       .  A
C455        N462   1.440   1_655  S
C456        C457   1.407       .  A
C456        H461   1.083       .  S
C457        C458   1.415       .  A
C458        N459   1.431       .  S
N459        O463   1.262       .  A
N459        O464   1.262       .  A
N462        O466   1.263       .  A
N462        O465   1.263       .  A
C467        C468   1.402       .  A
C467        C472   1.401       .  A
C467        H474   1.084   1_455  S
C468        C469   1.415       .  A
C469        C470   1.404       .  A
C469        N476   1.439       .  S
C470        C471   1.407       .  A
C470        H475   1.083       .  S
C471        C472   1.415       .  A
C472        N473   1.430       .  S
N473        O477   1.262       .  A
N473        O478   1.262   1_455  A
N476        O480   1.263       .  A
N476        O479   1.263       .  A
C481        C482   1.401   1_545  A
C481        C486   1.399       .  A
C481        H488   1.084       .  S
C482        C483   1.415       .  A
C483        C484   1.404       .  A
C483        N490   1.439       .  S
C484        C485   1.405   1_565  A
C484        H489   1.084       .  S
C485        C486   1.417       .  A
C486        N487   1.436       .  S
N487        O491   1.263       .  A
N487        O492   1.263       .  A
N490        O494   1.263       .  A
N490        O493   1.263       .  A
C495        C496   1.405       .  A
C495        C500   1.402       .  A
C495        H502   1.083       .  S
C496        C497   1.413       .  A
C497        C498   1.398       .  A
C497        N504   1.429       .  S
C498        C499   1.402       .  A
C498        H503   1.084       .  S
C499        C500   1.414       .  A
C500        N501   1.438       .  S
N501        O505   1.263       .  A
N501        O506   1.263       .  A
N504        O508   1.261       .  A
N504        O507   1.262       .  A
C509        C510   1.402       .  A
C509        C514   1.402       .  A
C509        H516   1.084   1_455  S
C510        C511   1.415       .  A
C511        C512   1.403       .  A
C511        N518   1.438       .  S
C512        C513   1.406       .  A
C512        H517   1.083       .  S
C513        C514   1.417       .  A
C514        N515   1.434       .  S
N515        O519   1.262       .  A
N515        O520   1.262       .  A
N518        O522   1.263       .  A
N518        O521   1.262       .  A
C523        C524   1.402       .  A
C523        C528   1.404       .  A
C523        H530   1.084   1_655  S
C524        C525   1.413       .  A
C525        C526   1.402       .  A
C525        N532   1.437       .  S
C526        C527   1.404       .  A
C526        H531   1.084       .  S
C527        C528   1.417       .  A
C528        N529   1.437       .  S
N529        O533   1.263   1_655  A
N529        O534   1.263       .  A
N532        O536   1.262       .  A
N532        O535   1.263       .  A
C537        C538   1.404       .  A
C537        C542   1.402       .  A
C537        H544   1.084       .  S
C538        C539   1.414       .  A
C539        C540   1.404       .  A
C539        N546   1.439       .  S
C540        C541   1.407       .  A
C540        H545   1.083       .  S
C541        C542   1.417       .  A
C542        N543   1.435       .  S
N543        O547   1.263       .  A
N543        O548   1.263       .  A
N546        O550   1.263       .  A
N546        O549   1.263       .  A
C551        C552   1.407       .  A
C551        C556   1.406       .  A
C551        H558   1.084       .  S
C552        C553   1.415       .  A
C553        C554   1.398       .  A
C553        N560   1.431       .  S
C554        C555   1.402       .  A
C554        H559   1.084       .  S
C555        C556   1.414       .  A
C556        N557   1.439       .  S
N557        O561   1.263       .  A
N557        O562   1.263       .  A
N560        O564   1.262       .  A
N560        O563   1.262       .  A
C565        C566   1.401       .  A
C565        C570   1.403       .  A
C565        H572   1.084       .  S
C566        C567   1.414       .  A
C567        C568   1.403       .  A
C567        N574   1.439       .  S
C568        C569   1.404       .  A
C568        H573   1.084       .  S
C569        C570   1.417       .  A
C570        N571   1.437       .  S
N571        O575   1.263       .  A
N571        O576   1.263       .  A
N574        O578   1.263       .  A
N574        O577   1.263       .  A
C579        C580   1.407       .  A
C579        C584   1.404       .  A
C579        H586   1.083       .  S
C580        C581   1.416       .  A
C581        C582   1.399       .  A
C581        N588   1.431       .  S
C582        C583   1.403       .  A
C582        H587   1.084       .  S
C583        C584   1.416       .  A
C584        N585   1.439       .  S
N585        O589   1.263       .  A
N585        O590   1.263       .  A
N588        O592   1.262       .  A
N588        O591   1.262       .  A
C593        C594   1.406       .  A
C593        C598   1.403       .  A
C593        H600   1.083       .  S
C594        C595   1.415       .  A
C595        C596   1.401       .  A
C595        N602   1.431       .  S
C596        C597   1.404       .  A
C596        H601   1.084       .  S
C597        C598   1.415       .  A
C598        N599   1.438       .  S
N599        O603   1.263       .  A
N599        O604   1.263       .  A
N602        O606   1.262       .  A
N602        O605   1.262       .  A
C607        C608   1.402       .  A
C607        C612   1.402       .  A
C607        H614   1.084       .  S
C608        C609   1.413       .  A
C609        C610   1.402       .  A
C609        N616   1.440       .  S
C610        C611   1.406       .  A
C610        H615   1.084       .  S
C611        C612   1.416       .  A
C612        N613   1.437       .  S
N613        O617   1.263       .  A
N613        O618   1.263       .  A
N616        O620   1.263       .  A
N616        O619   1.263       .  A
C621        C622   1.402       .  A
C621        C626   1.399       .  A
C621        H628   1.084       .  S
C622        C623   1.415       .  A
C623        C624   1.404       .  A
C623        N630   1.439       .  S
C624        C625   1.407       .  A
C624        H629   1.083       .  S
C625        C626   1.416       .  A
C626        N627   1.434       .  S
N627        O631   1.263       .  A
N627        O632   1.263       .  A
N630        O634   1.263       .  A
N630        O633   1.263       .  A
C635        C636   1.401       .  A
C635        C640   1.401       .  A
C635        H642   1.084       .  S
C636        C637   1.412       .  A
C637        C638   1.404       .  A
C637        N644   1.439       .  S
C638        C639   1.405       .  A
C638        H643   1.084       .  S
C639        C640   1.417       .  A
C640        N641   1.437       .  S
N641        O645   1.263       .  A
N641        O646   1.263       .  A
N644        O648   1.263       .  A
N644        O647   1.263       .  A
C649        C650   1.401       .  A
C649        C654   1.403       .  A
C649        H656   1.084       .  S
C650        C651   1.413       .  A
C651        C652   1.405       .  A
C651        N658   1.440       .  S
C652        C653   1.405       .  A
C652        H657   1.083       .  S
C653        C654   1.415       .  A
C654        N655   1.437       .  S
N655        O659   1.262       .  A
N655        O660   1.263       .  A
N658        O662   1.263       .  A
N658        O661   1.263       .  A
C663        C664   1.401       .  A
C663        C668   1.405       .  A
C663        H670   1.084       .  S
C664        C665   1.411       .  A
C665        C666   1.403       .  A
C665        N672   1.438       .  S
C666        C667   1.403       .  A
C666        H671   1.084       .  S
C667        C668   1.415       .  A
C668        N669   1.439       .  S
N669        O673   1.263       .  A
N669        O674   1.263       .  A
N672        O676   1.262       .  A
N672        O675   1.262       .  A
C677        C678   1.401       .  A
C677        C682   1.404       .  A
C677        H684   1.084       .  S
C678        C679   1.413       .  A
C679        C680   1.401       .  A
C679        N686   1.439       .  S
C680        C681   1.404       .  A
C680        H685   1.084       .  S
C681        C682   1.416       .  A
C682        N683   1.438       .  S
N683        O687   1.263       .  A
N683        O688   1.263       .  A
N686        O690   1.263       .  A
N686        O689   1.263       .  A
C691        C692   1.404       .  A
C691        C696   1.403       .  A
C691        H698   1.084       .  S
C692        C693   1.416       .  A
C693        C694   1.403       .  A
C693        N700   1.439       .  S
C694        C695   1.407       .  A
C694        H699   1.083       .  S
C695        C696   1.417       .  A
C696        N697   1.433       .  S
N697        O701   1.262       .  A
N697        O702   1.262       .  A
N700        O704   1.263       .  A
N700        O703   1.263       .  A
C705        C706   1.402       .  A
C705        C710   1.398       .  A
C705        H712   1.085       .  S
C706        C707   1.415       .  A
C707        C708   1.406       .  A
C707        N714   1.439       .  S
C708        C709   1.407       .  A
C708        H713   1.084       .  S
C709        C710   1.414       .  A
C710        N711   1.430       .  S
N711        O715   1.262       .  A
N711        O716   1.262       .  A
N714        O718   1.263       .  A
N714        O717   1.263       .  A
C719        C720   1.402       .  A
C719        C724   1.403       .  A
C719        H726   1.084       .  S
C720        C721   1.414       .  A
C721        C722   1.405       .  A
C721        N728   1.440       .  S
C722        C723   1.406       .  A
C722        H727   1.084       .  S
C723        C724   1.417       .  A
C724        N725   1.436       .  S
N725        O729   1.263       .  A
N725        O730   1.263       .  A
N728        O732   1.263       .  A
N728        O731   1.263       .  A
C733        C734   1.401       .  A
C733        C738   1.398       .  A
C733        H740   1.084       .  S
C734        C735   1.413       .  A
C735        C736   1.404       .  A
C735        N742   1.441       .  S
C736        C737   1.405       .  A
C736        H741   1.083       .  S
C737        C738   1.411       .  A
C738        N739   1.429       .  S
N739        O743   1.262       .  A
N739        O744   1.262       .  A
N742        O746   1.263       .  A
N742        O745   1.263       .  A
C747        C748   1.400       .  A
C747        C752   1.401       .  A
C747        H754   1.084       .  S
C748        C749   1.413       .  A
C749        C750   1.404       .  A
C749        N756   1.438       .  S
C750        C751   1.405       .  A
C750        H755   1.084       .  S
C751        C752   1.417       .  A
C752        N753   1.437       .  S
N753        O757   1.263       .  A
N753        O758   1.263       .  A
N756        O760   1.263       .  A
N756        O759   1.263       .  A
