geometry optimzed in LAMMPS
_audit_creation_date              2020-11-30 
_audit_creation_method            'lammps2cif' 
_symmetry_space_group_name_H-M    'P1' 
_symmetry_Int_Tables_number       1 
_symmetry_cell_setting            triclinic 
loop_ 
_symmetry_equiv_pos_as_xyz 
  x,y,z 
_cell_length_a                    35.33407717 
_cell_length_b                    34.523810299905875 
_cell_length_c                    34.50355921936385 
_cell_angle_alpha                 89.61223378933035 
_cell_angle_beta                  89.29177157670448 
_cell_angle_gamma                 87.71566105351535 
loop_ 
_atom_site_label 
_atom_site_type_symbol 
_atom_site_fract_x 
_atom_site_fract_y 
_atom_site_fract_z 
_atom_site_charge 
O1          O  0.97962859  0.47610932  0.91675974    -0.78100
C2          C  0.00182108  0.38668504  0.00279151     0.82900
O3          O  0.90894609  0.52021499  0.02426648    -0.79200
O4          O  0.02648723  0.47164595  0.09106085    -0.80700
O5          O  0.08935303  0.51865608  0.97730572    -0.80500
O6          O  0.01790508  0.52629337  0.91507096    -0.79100
Zn7        Zn  0.96972564  0.46339354  0.97180368     1.55700
O8          O  0.09255852  0.46952334  0.01943317    -0.80500
Cd9        Cd  0.03176839  0.53187344  0.97229660     1.59700
Cd10       Cd  0.96552591  0.52793620  0.03673940     1.59600
O11         O  0.02271132  0.58909951  0.98921876    -0.80500
O12         O  0.00054263  0.49565150  0.00323880    -1.91000
Cd13       Cd  0.03591236  0.46083368  0.03336398     1.59900
O14         O  0.97610608  0.58656811  0.03307546    -0.80500
O15         O  0.02506024  0.40287276  0.02485263    -0.79100
C16         C  0.89378820  0.49541527  0.00279915     0.83400
C17         C  0.99797158  0.50151422  0.89844120     0.83100
O18         O  0.98000058  0.40638533  0.98048727    -0.78100
C19         C  0.10854689  0.49356510  0.99692852     0.83900
O20         O  0.91405276  0.47204740  0.98227616    -0.78200
C21         C  0.99981342  0.60564293  0.01331359     0.84000
C22         C  0.00057861  0.49081383  0.10946757     0.84300
O23         O  0.97482624  0.51155508  0.09296427    -0.80600
O24         O  0.01911460  0.58834874  0.53007381    -0.78100
C25         C  0.99365367  0.49595197  0.61003686     0.82900
O26         O  0.09397408  0.47787150  0.48772712    -0.79200
O27         O  0.98032871  0.40643306  0.52395875    -0.80700
O28         O  0.91291514  0.52643524  0.47877230    -0.80500
O29         O  0.97913355  0.59243174  0.48085655    -0.79100
Zn30       Zn  0.02985480  0.53155192  0.53912557     1.55700
O31         O  0.90977167  0.47683017  0.52023733    -0.80500
Cd32       Cd  0.96997757  0.53417638  0.47149409     1.59700
Cd33       Cd  0.03857273  0.46605321  0.47464824     1.59600
O34         O  0.98136972  0.51980047  0.41541800    -0.80500
O35         O  0.00166025  0.49926637  0.50514617    -1.91000
Cd36       Cd  0.96665830  0.46451315  0.53348467     1.59900
O37         O  0.03037084  0.47722669  0.41668607    -0.80500
O38         O  0.97438371  0.47209830  0.59145049    -0.79100
C39         C  0.10790503  0.50018400  0.51262713     0.83400
C40         C  0.99901274  0.60833875  0.50639719     0.83100
O41         O  0.01408362  0.52039935  0.59294448    -0.78100
C42         C  0.89392842  0.50236506  0.49819387     0.83900
O43         O  0.08676846  0.52164354  0.53445815    -0.78200
C44         C  0.00585934  0.49787782  0.39822968     0.84000
C45         C  0.00714217  0.38892062  0.50529580     0.84300
O46         O  0.03147899  0.40711951  0.48538373    -0.80600
O47         O  0.52471563  0.58946215  0.01875101    -0.78100
C48         C  0.49774535  0.49822016  0.09993357     0.82900
O49         O  0.59183111  0.46918368  0.97733043    -0.79200
O50         O  0.47476051  0.41047491  0.01498352    -0.80700
O51         O  0.41254532  0.52804001  0.96614138    -0.80500
O52         O  0.48136777  0.59473796  0.97240068    -0.79100
Zn53       Zn  0.53360789  0.53158012  0.02732223     1.55700
O54         O  0.41035827  0.48180095  0.01138538    -0.80500
Cd55       Cd  0.47059240  0.53710224  0.96080021     1.59700
Cd56       Cd  0.53539982  0.46481502  0.96386774     1.59600
O57         O  0.48595809  0.52636170  0.90414307    -0.80500
O58         O  0.50177899  0.50128179  0.99454802    -1.91000
Cd59       Cd  0.46618305  0.46906676  0.02485085     1.59900
O60         O  0.53033309  0.47825087  0.90659683    -0.80500
O61         O  0.47407751  0.47802565  0.08242960    -0.79100
C62         C  0.60822766  0.49311849  0.99869220     0.83400
C63         C  0.50382129  0.60998983  0.99606967     0.83100
O64         O  0.52149822  0.51913435  0.08246934    -0.78100
C65         C  0.39399283  0.50480407  0.98732962     0.83900
O66         O  0.58957346  0.51862618  0.01842634    -0.78200
C67         C  0.50964576  0.50265940  0.88793637     0.84000
C68         C  0.49676603  0.39140727  0.99201816     0.84300
O69         O  0.52095983  0.40770862  0.97042549    -0.80600
O70         O  0.52152813  0.59555838  0.51056237    -0.78100
C71         C  0.51217207  0.50416370  0.59959874     0.82900
O72         O  0.59254833  0.48064246  0.46748197    -0.79200
O73         O  0.48166524  0.41217390  0.51542046    -0.80700
O74         O  0.40914311  0.52499436  0.47857596    -0.80500
O75         O  0.47116092  0.59501469  0.47295591    -0.79100
Zn76       Zn  0.53498267  0.53911281  0.52201053     1.55700
O77         O  0.41453664  0.48169935  0.52639549    -0.80500
Cd78       Cd  0.46485899  0.53640111  0.46400340     1.59700
Cd79       Cd  0.53578941  0.47037645  0.46140247     1.59600
O80         O  0.47414837  0.52502114  0.40599524    -0.80500
O81         O  0.50237818  0.50457570  0.49471361    -1.91000
Cd82       Cd  0.47285319  0.47025908  0.52962451     1.59900
O83         O  0.52274173  0.48121479  0.40487194    -0.80500
O84         O  0.49059275  0.47924357  0.58544135    -0.79100
C85         C  0.60911354  0.50592062  0.48703291     0.83400
C86         C  0.49565043  0.61349109  0.49135776     0.83100
O87         O  0.52936828  0.52874764  0.57887430    -0.78100
C88         C  0.39420872  0.50323140  0.50402319     0.83900
O89         O  0.59060502  0.53016998  0.50832765    -0.78200
C90         C  0.49811828  0.50297980  0.38798023     0.84000
C91         C  0.50498133  0.39405052  0.49287697     0.84300
O92         O  0.52843045  0.41210939  0.47188720    -0.80600
N93         N  0.00573105  0.95656113  0.06629954    -0.36200
N94         N  0.00589679  0.95214278  0.97997817    -0.56800
N95         N  0.01033261  0.03521090  0.97567801    -0.36200
N96         N  0.00591873  0.03969344  0.06200072    -0.56800
C97         C  0.99784746  0.91892246  0.06095492     0.27400
C98         C  0.99760195  0.96525151  0.10397964     0.27400
C99         C  0.00519720  0.02760766  0.93746791     0.27400
C100        C  0.00543614  0.07400429  0.98047562     0.27400
C101        C  0.00960210  0.91396638  0.98890502     0.36000
C102        C  0.01098570  0.95539566  0.94102793     0.36000
C103        C  0.00948795  0.03576924  0.10099451     0.36000
C104        C  0.01108632  0.07741677  0.05336460     0.36000
C105        C  0.98507648  0.90338971  0.09571606    -0.21500
C106        C  0.98471346  0.93258561  0.12269748    -0.21500
C107        C  0.99786444  0.06214946  0.91779233    -0.21500
C108        C  0.99840567  0.09129600  0.94467019    -0.21500
C109        C  0.01671920  0.89282540  0.95532822    -0.22600
C110        C  0.01755748  0.91900597  0.92510782    -0.22600
C111        C  0.01699068  0.07121064  0.11714783    -0.22600
C112        C  0.01740788  0.09760747  0.08720496    -0.22600
C113        C  0.00384473  0.89740400  0.02628198    -0.17900
C114        C  0.00335814  0.00124545  0.12248966    -0.17900
C115        C  0.00803436  0.09467238  0.01589748    -0.17900
C116        C  0.00809228  0.99060084  0.91940688    -0.17900
H117        H  0.97699421  0.87392474  0.10120473     0.15000
H118        H  0.97629981  0.92989417  0.15283354     0.15000
H119        H  0.99280704  0.06610510  0.88712166     0.15000
H120        H  0.99394740  0.12186446  0.93834806     0.15000
H121        H  0.02035023  0.86166399  0.95275636     0.13300
H122        H  0.02217419  0.91201809  0.89484193     0.13300
H123        H  0.02084449  0.07764450  0.14746280     0.13300
H124        H  0.02174047  0.12828483  0.09018967     0.13300
H125        H  0.01989874  0.97354438  0.04653588     0.26500
H126        H  0.01966285  0.01592076  0.99675916     0.26500
N127        N  0.99622769  0.95678234  0.56287348    -0.36200
N128        N  0.99913704  0.03961981  0.56435054    -0.56800
N129        N  0.99814463  0.04064713  0.47866977    -0.36200
N130        N  0.99285218  0.95816599  0.47712615    -0.56800
C131        C  0.98922202  0.96338453  0.60113816     0.27400
C132        C  0.98610667  0.92026088  0.55512923     0.27400
C133        C  0.99127982  0.07849065  0.48710514     0.27400
C134        C  0.98855012  0.03549199  0.44112404     0.27400
C135        C  0.00747438  0.03195117  0.60197354     0.36000
C136        C  0.00875487  0.07652751  0.55707196     0.36000
C137        C  0.99886329  0.91976912  0.48358874     0.36000
C138        C  0.99995738  0.96441220  0.43891989     0.36000
C139        C  0.97424724  0.93057840  0.61777464    -0.21500
C140        C  0.97253443  0.90332290  0.58885148    -0.21500
C141        C  0.97690934  0.09760913  0.45460659    -0.21500
C142        C  0.97519023  0.07046959  0.42561682    -0.21500
C143        C  0.02242471  0.06426592  0.61869837    -0.22600
C144        C  0.02312074  0.09252262  0.59031899    -0.22600
C145        C  0.00940419  0.90144329  0.44921174    -0.22600
C146        C  0.01020501  0.92973975  0.42096583    -0.22600
C147        C  0.99900243  0.99706030  0.62183924    -0.17900
C148        C  0.99237650  0.90063271  0.51943076    -0.17900
C149        C  0.99471874  0.00072465  0.41982754    -0.17900
C150        C  0.00169164  0.09689787  0.52183445    -0.17900
H151        H  0.96633416  0.92632634  0.64785944     0.15000
H152        H  0.96308092  0.87405770  0.59241217     0.15000
H153        H  0.96946343  0.12820335  0.45174730     0.15000
H154        H  0.96606104  0.07603346  0.39620249     0.15000
H155        H  0.03125838  0.06737506  0.64839910     0.13300
H156        H  0.03253535  0.12171761  0.59391568     0.13300
H157        H  0.01549503  0.87079796  0.44484186     0.13300
H158        H  0.01702452  0.92523165  0.39062407     0.13300
H159        H  0.01160552  0.97404914  0.54415038     0.26500
H160        H  0.01338715  0.02094935  0.49594602     0.26500
N161        N  0.50592398  0.95927845  0.94431029    -0.36200
N162        N  0.49622853  0.04236232  0.94121772    -0.56800
N163        N  0.48943784  0.04411004  0.02719651    -0.36200
N164        N  0.50338604  0.96100531  0.03027282    -0.56800
C165        C  0.51499019  0.96597714  0.90647985     0.27400
C166        C  0.51782753  0.92253023  0.95312982     0.27400
C167        C  0.49082731  0.08247817  0.01908076     0.27400
C168        C  0.49299799  0.03952834  0.06615392     0.27400
C169        C  0.49152196  0.03465987  0.90312535     0.36000
C170        C  0.48424874  0.07963522  0.94672618     0.36000
C171        C  0.50445367  0.92215487  0.02481438     0.36000
C172        C  0.49708561  0.96698358  0.06871825     0.36000
C173        C  0.53326953  0.93304629  0.89132804    -0.21500
C174        C  0.53458297  0.90553860  0.92054021    -0.21500
C175        C  0.49447831  0.10263200  0.05341884    -0.21500
C176        C  0.49530390  0.07570837  0.08300833    -0.21500
C177        C  0.47603669  0.06718372  0.88451310    -0.22600
C178        C  0.47203221  0.09580770  0.91196652    -0.22600
C179        C  0.49965403  0.90339002  0.06010739    -0.22600
C180        C  0.49546309  0.93165371  0.08784222    -0.22600
C181        C  0.50407915  0.99972344  0.88455249    -0.17900
C182        C  0.51168870  0.90299898  0.98895159    -0.17900
C183        C  0.49357977  0.00378208  0.08711849    -0.17900
C184        C  0.48669732  0.10025023  0.98195691    -0.17900
H185        H  0.54356587  0.92885028  0.86192466     0.15000
H186        H  0.54634164  0.87622036  0.91800755     0.15000
H187        H  0.49574395  0.13367546  0.05698510     0.15000
H188        H  0.49758145  0.08222167  0.11349394     0.15000
H189        H  0.46923982  0.07031253  0.85412997     0.13300
H190        H  0.46136087  0.12521447  0.90694311     0.13300
H191        H  0.49974090  0.87246791  0.06549435     0.13300
H192        H  0.49146209  0.92664679  0.11858395     0.13300
H193        H  0.48819349  0.97661773  0.96173279     0.26500
H194        H  0.48330969  0.02284825  0.00748434     0.26500
N195        N  0.48677105  0.04633094  0.44359203    -0.36200
N196        N  0.48135010  0.96396732  0.44273985    -0.56800
N197        N  0.48487664  0.96212549  0.52901430    -0.36200
N198        N  0.49399541  0.04439381  0.52965107    -0.56800
C199        C  0.49276707  0.03958873  0.40514719     0.27400
C200        C  0.49804115  0.08249687  0.45095551     0.27400
C201        C  0.48769303  0.92383318  0.52092726     0.27400
C202        C  0.49389443  0.96640182  0.56690746     0.27400
C203        C  0.47429074  0.97106718  0.40475637     0.36000
C204        C  0.47300087  0.92669539  0.44967457     0.36000
C205        C  0.49122904  0.08313195  0.52357794     0.36000
C206        C  0.49213572  0.03865207  0.56856146     0.36000
C207        C  0.50786502  0.07205096  0.38802373    -0.21500
C208        C  0.51087605  0.09918170  0.41677786    -0.21500
C209        C  0.49769396  0.90341592  0.55432427    -0.21500
C210        C  0.50126022  0.93014796  0.58327751    -0.21500
C211        C  0.46106254  0.93816198  0.38757596    -0.22600
C212        C  0.46057333  0.90998087  0.41590844    -0.22600
C213        C  0.48804554  0.10212989  0.55885373    -0.22600
C214        C  0.48903509  0.07403907  0.58727382    -0.22600
C215        C  0.48312768  0.00569760  0.38478486    -0.17900
C216        C  0.49493026  0.10191199  0.48706824    -0.17900
C217        C  0.49453456  0.00195365  0.58748816    -0.17900
C218        C  0.47985879  0.90633809  0.48487234    -0.17900
H219        H  0.51546391  0.07602516  0.35782040     0.15000
H220        H  0.52128848  0.12803368  0.41290598     0.15000
H221        H  0.50162928  0.87232942  0.55771298     0.15000
H222        H  0.50853779  0.92346782  0.61300933     0.15000
H223        H  0.45360253  0.93450010  0.35753187     0.13300
H224        H  0.45257326  0.88034061  0.41195420     0.13300
H225        H  0.48613046  0.13309408  0.56369312     0.13300
H226        H  0.48769754  0.07918697  0.61816924     0.13300
H227        H  0.47184619  0.02939020  0.46298035     0.26500
H228        H  0.47415382  0.98341810  0.51041877     0.26500
C229        C  0.49772733  0.00065264  0.63114306     0.01700
C230        C  0.53273832  0.99145613  0.64912980     0.04600
C231        C  0.53504771  0.98886498  0.69006060    -0.11500
C232        C  0.50312235  0.99876246  0.71372509     0.23900
C233        C  0.46864344  0.00984106  0.69556862    -0.12100
C234        C  0.46554419  0.00885016  0.65478019     0.05300
C235        C  0.50540619  0.99762403  0.75743295     0.27700
C236        C  0.48532853  0.97008576  0.77914024    -0.12800
C237        C  0.48349958  0.97196056  0.82009821     0.05800
C238        C  0.50553040  0.99833372  0.84050722    -0.08700
C239        C  0.52792831  0.02405114  0.81862636     0.06600
C240        C  0.52601607  0.02518796  0.77762520    -0.13100
Br241      Br  0.42579379  0.02805405  0.72654245    -0.05200
Br242      Br  0.57770589  0.98293152  0.61756041     0.00400
Br243      Br  0.44833671  0.94011711  0.84777088     0.00900
Br244      Br  0.54989530  0.06610555  0.74916861    -0.03500
Br245      Br  0.41681236  0.01802236  0.63111409     0.01000
Br246      Br  0.58181238  0.97082543  0.71360629    -0.02800
Br247      Br  0.46021359  0.92947059  0.75263433    -0.03700
Br248      Br  0.56205547  0.05749361  0.84440102     0.00300
C249        C  0.48386383  0.00601530  0.34078844     0.01700
C250        C  0.45864030  0.03071198  0.31958145     0.04600
C251        C  0.46124553  0.03284311  0.27858403    -0.11500
C252        C  0.48542338  0.00649986  0.25770596     0.23900
C253        C  0.50845060  0.97969674  0.27895459    -0.12100
C254        C  0.50974214  0.98147437  0.31987710     0.05300
C255        C  0.48702761  0.00689193  0.21381080     0.27700
C256        C  0.45571620  0.99576603  0.19179173    -0.12800
C257        C  0.45735750  0.99640159  0.15073543     0.05800
C258        C  0.49127765  0.00501550  0.13093159    -0.08700
C259        C  0.52307670  0.01448517  0.15287075     0.06600
C260        C  0.52051239  0.01701006  0.19377446    -0.13100
Br261      Br  0.53715934  0.93916348  0.25211751    -0.05200
Br262      Br  0.41916743  0.06032879  0.34655621     0.00400
Br263      Br  0.41299848  0.98537119  0.12134054     0.00900
Br264      Br  0.56307376  0.03486495  0.22225956    -0.03500
Br265      Br  0.54850390  0.95151387  0.34695745     0.01000
Br266      Br  0.43267210  0.07301227  0.25133309    -0.02800
Br267      Br  0.41110558  0.97746228  0.21773024    -0.03700
Br268      Br  0.57064082  0.02303063  0.12672820     0.00300
C269        C  0.00001042  0.99562623  0.66583725     0.01700
C270        C  0.97514938  0.01969820  0.68855757     0.04600
C271        C  0.97719987  0.01914688  0.72957110    -0.11500
C272        C  0.00141387  0.99191721  0.74883915     0.23900
C273        C  0.02486487  0.96653691  0.72622419    -0.12100
C274        C  0.02562792  0.96976691  0.68526810     0.05300
C275        C  0.00319042  0.99077305  0.79262065     0.27700
C276        C  0.03499050  0.00463242  0.81189282    -0.12800
C277        C  0.03750963  0.00236880  0.85278810     0.05800
C278        C  0.00698710  0.98905755  0.87548713    -0.08700
C279        C  0.97454304  0.97650874  0.85627834     0.06600
C280        C  0.97322072  0.97609255  0.81521385    -0.13100
Br281      Br  0.05550468  0.92658371  0.75148151    -0.05200
Br282      Br  0.93707414  0.05262032  0.66379132     0.00400
Br283      Br  0.08316057  0.01725494  0.87781453     0.00900
Br284      Br  0.93027507  0.95516637  0.78982802    -0.03500
Br285      Br  0.06342732  0.94006184  0.65601282     0.01000
Br286      Br  0.94766865  0.05675438  0.75946708    -0.02800
Br287      Br  0.07448939  0.02852513  0.78220553    -0.03700
Br288      Br  0.93100951  0.96162036  0.88630824     0.00300
C289        C  0.00222704  0.00272039  0.16645996     0.01700
C290        C  0.03006171  0.98209060  0.18845810     0.04600
C291        C  0.02789696  0.98150037  0.22946427    -0.11500
C292        C  0.99996963  0.00437715  0.24939183     0.23900
C293        C  0.97339825  0.02669586  0.22748839    -0.12100
C294        C  0.97326863  0.02425816  0.18652436     0.05300
C295        C  0.99811430  0.00433916  0.29314414     0.27700
C296        C  0.96878683  0.98554656  0.31315253    -0.12800
C297        C  0.96692154  0.98554876  0.35416636     0.05800
C298        C  0.99549385  0.00250822  0.37599677    -0.08700
C299        C  0.02497354  0.02110852  0.35597357     0.06600
C300        C  0.02574125  0.02281446  0.31495140    -0.13100
Br301      Br  0.93760787  0.06145432  0.25372482    -0.05200
Br302      Br  0.07196445  0.95523258  0.16247163     0.00400
Br303      Br  0.92433099  0.96334272  0.38045494     0.00900
Br304      Br  0.06445307  0.05114979  0.28851325    -0.03500
Br305      Br  0.93210893  0.04894630  0.15819777     0.01000
Br306      Br  0.06266250  0.94828458  0.25841392    -0.02800
Br307      Br  0.93136461  0.95897315  0.28427648    -0.03700
Br308      Br  0.06515144  0.04345245  0.38471882     0.00300
C309        C  0.50458630  0.35092503  0.49072560     0.01700
C310        C  0.51003844  0.33173599  0.45466413     0.04600
C311        C  0.50932880  0.29099352  0.45280374    -0.11500
C312        C  0.50260185  0.26912083  0.48654047     0.23900
C313        C  0.49681478  0.28789039  0.52229831    -0.12100
C314        C  0.49824575  0.32850459  0.52461623     0.05300
C315        C  0.50120436  0.22624594  0.48467043     0.27700
C316        C  0.46690580  0.20886058  0.47610785    -0.12800
C317        C  0.46481696  0.16825919  0.47720412     0.05800
C318        C  0.49712856  0.14490601  0.48648018    -0.08700
C319        C  0.53159496  0.16227483  0.49440379     0.06600
C320        C  0.53366028  0.20288219  0.49336084    -0.13100
Br321      Br  0.48659261  0.25746301  0.56818167    -0.05200
Br322      Br  0.51644728  0.36053437  0.40690716     0.00400
Br323      Br  0.41750695  0.14450780  0.46689401     0.00900
Br324      Br  0.58090733  0.22670385  0.50369242    -0.03500
Br325      Br  0.49340274  0.35241228  0.57503452     0.01000
Br326      Br  0.51699479  0.26471857  0.40391722    -0.02800
Br327      Br  0.42284908  0.24087471  0.46301269    -0.03700
Br328      Br  0.57586238  0.13025308  0.50668682     0.00300
C329        C  0.49413522  0.65676327  0.49003572     0.01700
C330        C  0.50380138  0.67858322  0.52298079     0.04600
C331        C  0.50249457  0.71939235  0.52134816    -0.11500
C332        C  0.49054616  0.73882956  0.48746284     0.23900
C333        C  0.48123458  0.71758503  0.45456200    -0.12100
C334        C  0.48330352  0.67677355  0.45555071     0.05300
C335        C  0.48760525  0.78178586  0.48638034     0.27700
C336        C  0.45305522  0.80135153  0.49617197    -0.12800
C337        C  0.45001941  0.84207177  0.49437803     0.05800
C338        C  0.48173620  0.86327202  0.48353759    -0.08700
C339        C  0.51630162  0.84370526  0.47386094     0.06600
C340        C  0.51923261  0.80300951  0.47527171    -0.13100
Br341      Br  0.46627286  0.74494453  0.40781291    -0.05200
Br342      Br  0.51706059  0.65366179  0.57150283     0.00400
Br343      Br  0.40262841  0.86902869  0.50679314     0.00900
Br344      Br  0.56674804  0.77619382  0.46294811    -0.03500
Br345      Br  0.47319016  0.64924286  0.40838275     0.01000
Br346      Br  0.51732397  0.74920207  0.56546147    -0.02800
Br347      Br  0.41032832  0.77223811  0.51304257    -0.03700
Br348      Br  0.55982012  0.87291745  0.45952740     0.00300
C349        C  0.48649101  0.14350338  0.97985710     0.01700
C350        C  0.52007646  0.16216404  0.96975380     0.04600
C351        C  0.52107614  0.20286247  0.97082011    -0.11500
C352        C  0.48855778  0.22511011  0.98208899     0.23900
C353        C  0.45463344  0.20661705  0.99095062    -0.12100
C354        C  0.45360227  0.16588743  0.98986412     0.05300
C355        C  0.49016860  0.26793267  0.98492180     0.27700
C356        C  0.50327222  0.28493769  0.01906528    -0.12800
C357        C  0.50596638  0.32543474  0.02123437     0.05800
C358        C  0.49387514  0.34908255  0.99000270    -0.08700
C359        C  0.47922231  0.33224124  0.95659037     0.06600
C360        C  0.47865083  0.29167212  0.95349081    -0.13100
Br361      Br  0.40974949  0.23729015  0.00485298    -0.05200
Br362      Br  0.56505139  0.13182199  0.95542697     0.00400
Br363      Br  0.52727307  0.34858271  0.06637701     0.00900
Br364      Br  0.46299924  0.26847284  0.90592081    -0.03500
Br365      Br  0.40733344  0.14056703  0.00236717     0.01000
Br366      Br  0.56697778  0.22839346  0.95699824    -0.02800
Br367      Br  0.51745905  0.25267904  0.06278641    -0.03700
Br368      Br  0.45797464  0.36490542  0.91609399     0.00300
C369        C  0.50666166  0.65268513  0.99616271     0.01700
C370        C  0.49400844  0.67474894  0.02840658     0.04600
C371        C  0.49607657  0.71551058  0.02765115    -0.11500
C372        C  0.51070854  0.73440031  0.99462221     0.23900
C373        C  0.52434497  0.71216500  0.96289438    -0.12100
C374        C  0.52250150  0.67146431  0.96374892     0.05300
C375        C  0.51129089  0.77760874  0.99289951     0.27700
C376        C  0.47901355  0.79942615  0.98053778    -0.12800
C377        C  0.47945376  0.84022782  0.97879687     0.05800
C378        C  0.51234126  0.85956298  0.98890688    -0.08700
C379        C  0.54482761  0.83769966  0.00067482     0.06600
C380        C  0.54421047  0.79688840  0.00293342    -0.13100
Br381      Br  0.54568698  0.73763534  0.91826425    -0.05200
Br382      Br  0.47302654  0.64914015  0.07316610     0.00400
Br383      Br  0.43467086  0.86988273  0.96329434     0.00900
Br384      Br  0.58830458  0.76716932  0.02007169    -0.03500
Br385      Br  0.54326776  0.64108958  0.92118328     0.01000
Br386      Br  0.47905457  0.74565837  0.07184107    -0.02800
Br387      Br  0.43418031  0.77319403  0.96596765    -0.03700
Br388      Br  0.59009657  0.86386051  0.01364201     0.00300
C389        C  0.51666480  0.50525336  0.64161667     0.01700
C390        C  0.53594473  0.47447713  0.66097008     0.04600
C391        C  0.53758803  0.47439259  0.70158489    -0.11500
C392        C  0.52044027  0.50538437  0.72251661     0.23900
C393        C  0.50284320  0.53704523  0.70303931    -0.12100
C394        C  0.50067654  0.53682419  0.66254205     0.05300
C395        C  0.51846351  0.50360613  0.76505253     0.27700
C396        C  0.48508063  0.49132816  0.78328230    -0.12800
C397        C  0.48233189  0.49084402  0.82378255     0.05800
C398        C  0.51284133  0.50291360  0.84584661    -0.08700
C399        C  0.54653432  0.51441292  0.82775369     0.06600
C400        C  0.54929507  0.51492364  0.78718640    -0.13100
Br401      Br  0.48071837  0.58004937  0.73210333    -0.05200
Br402      Br  0.56051887  0.43293046  0.63180382     0.00400
Br403      Br  0.43752965  0.47204362  0.84917112     0.00900
Br404      Br  0.59486281  0.53161798  0.76184741    -0.03500
Br405      Br  0.47382252  0.57862885  0.63591668     0.01000
Br406      Br  0.56231893  0.43155705  0.72872905    -0.02800
Br407      Br  0.44311272  0.47537462  0.75268226    -0.03700
Br408      Br  0.58838425  0.53032690  0.85857220     0.00300
C409        C  0.49761072  0.49752429  0.14196796     0.01700
C410        C  0.52372105  0.47297027  0.16163845     0.04600
C411        C  0.52425917  0.47320057  0.20221969    -0.11500
C412        C  0.49916317  0.49856834  0.22265001     0.23900
C413        C  0.47306791  0.52308715  0.20283403    -0.12100
C414        C  0.47179745  0.52198486  0.16235931     0.05300
C415        C  0.49954478  0.49911958  0.26510395     0.27700
C416        C  0.47469819  0.47582256  0.28618243    -0.12800
C417        C  0.47383906  0.47751099  0.32672108     0.05800
C418        C  0.49776631  0.50251390  0.34584691    -0.08700
C419        C  0.52290463  0.52550751  0.32482362     0.06600
C420        C  0.52370543  0.52392237  0.28426516    -0.13100
Br421      Br  0.43955122  0.55842901  0.23123250    -0.05200
Br422      Br  0.55810061  0.43876273  0.13286034     0.00400
Br423      Br  0.44049161  0.44524412  0.35618003     0.00900
Br424      Br  0.55744933  0.55579765  0.25480840    -0.03500
Br425      Br  0.43469802  0.55364520  0.13470562     0.01000
Br426      Br  0.55906582  0.43892412  0.22988745    -0.02800
Br427      Br  0.44191116  0.44185163  0.25932843    -0.03700
Br428      Br  0.55611240  0.55901066  0.35172834     0.00300
C429        C  0.01008808  0.34610841  0.50727151     0.01700
C430        C  0.99725010  0.32390661  0.47635091     0.04600
C431        C  0.99828524  0.28314570  0.47899524    -0.11500
C432        C  0.01205544  0.26432768  0.51269992     0.23900
C433        C  0.02540703  0.28653445  0.54348657    -0.12100
C434        C  0.02423416  0.32734863  0.54085325     0.05300
C435        C  0.01048408  0.22139267  0.51644432     0.27700
C436        C  0.97995560  0.20496985  0.53651513    -0.12800
C437        C  0.97724620  0.16440450  0.53862629     0.05800
C438        C  0.00523259  0.13992610  0.52091331    -0.08700
C439        C  0.03582625  0.15639493  0.50085001     0.06600
C440        C  0.03842404  0.19698599  0.49862804    -0.13100
Br441      Br  0.04475441  0.26088562  0.58941490    -0.05200
Br442      Br  0.97618514  0.34952537  0.43129317     0.00400
Br443      Br  0.93417807  0.14236758  0.56418210     0.00900
Br444      Br  0.07987400  0.21934872  0.47058511    -0.03500
Br445      Br  0.04163001  0.35773012  0.58337113     0.01000
Br446      Br  0.97973535  0.25296339  0.43690235    -0.02800
Br447      Br  0.94117498  0.23831059  0.56010459    -0.03700
Br448      Br  0.07402295  0.12326936  0.47600307     0.00300
C449        C  0.99865481  0.65107472  0.50917577     0.01700
C450        C  0.00883940  0.67373292  0.47681327     0.04600
C451        C  0.00865425  0.71439630  0.47969126    -0.11500
C452        C  0.99863186  0.73259398  0.51500265     0.23900
C453        C  0.98961428  0.70995586  0.54770183    -0.12100
C454        C  0.98914042  0.66932883  0.54471356     0.05300
C455        C  0.99660084  0.77559054  0.51737404     0.27700
C456        C  0.02758355  0.79563704  0.53126242    -0.12800
C457        C  0.02581660  0.83641634  0.53262701     0.05800
C458        C  0.99320034  0.85736942  0.51975112    -0.08700
C459        C  0.96212758  0.83725611  0.50600908     0.06600
C460        C  0.96374332  0.79644893  0.50508338    -0.13100
Br461      Br  0.97817966  0.73478968  0.59663606    -0.05200
Br462      Br  0.02503286  0.64907793  0.42909822     0.00400
Br463      Br  0.06853374  0.86377466  0.55109459     0.00900
Br464      Br  0.92104610  0.76884276  0.48687482    -0.03500
Br465      Br  0.97356448  0.63896919  0.58893823     0.01000
Br466      Br  0.02281147  0.74538726  0.43548880    -0.02800
Br467      Br  0.07264170  0.76707348  0.54776366    -0.03700
Br468      Br  0.91747496  0.86567567  0.48827983     0.00300
C469        C  0.85226540  0.50427566  0.49450283     0.01700
C470        C  0.83560587  0.49673344  0.45847219     0.04600
C471        C  0.79588952  0.49864587  0.45487742    -0.11500
C472        C  0.77273842  0.50845900  0.48716812     0.23900
C473        C  0.78943514  0.51740375  0.52272658    -0.12100
C474        C  0.82909155  0.51529320  0.52639443     0.05300
C475        C  0.73083190  0.50745685  0.48463604     0.27700
C476        C  0.70921273  0.54067628  0.47318098    -0.12800
C477        C  0.66932276  0.54025376  0.47372291     0.05800
C478        C  0.65095589  0.50648087  0.48555955    -0.08700
C479        C  0.67272849  0.47304028  0.49628741     0.06600
C480        C  0.71252170  0.47355302  0.49575814    -0.13100
Br481      Br  0.75770098  0.53266097  0.56636243    -0.05200
Br482      Br  0.86718273  0.48280057  0.41425521     0.00400
Br483      Br  0.63993279  0.58558845  0.45720898     0.00900
Br484      Br  0.74224529  0.42799266  0.51104766    -0.03500
Br485      Br  0.85174881  0.52938479  0.57455152     0.01000
Br486      Br  0.77299827  0.48749599  0.40594331    -0.02800
Br487      Br  0.73446362  0.58671601  0.45707518    -0.03700
Br488      Br  0.64813363  0.42708599  0.51402612     0.00300
C489        C  0.35208849  0.50265178  0.50726993     0.01700
C490        C  0.32991870  0.49958472  0.47356713     0.04600
C491        C  0.29012304  0.49890549  0.47657467    -0.11500
C492        C  0.27199254  0.50124300  0.51309502     0.23900
C493        C  0.29382717  0.50424585  0.54674726    -0.12100
C494        C  0.33368649  0.50506697  0.54393636     0.05300
C495        C  0.22984969  0.50124461  0.51579755     0.27700
C496        C  0.20834212  0.53639396  0.51287725    -0.12800
C497        C  0.16842029  0.53637021  0.51333593     0.05800
C498        C  0.14973583  0.50096399  0.51597504    -0.08700
C499        C  0.17138155  0.46588127  0.52001383     0.06600
C500        C  0.21126437  0.46605185  0.51979844    -0.13100
Br501      Br  0.26873970  0.50769072  0.59667219    -0.05200
Br502      Br  0.35364110  0.49458044  0.42300002     0.00400
Br503      Br  0.13969369  0.58487579  0.50834551     0.00900
Br504      Br  0.24067297  0.41795949  0.52401683    -0.03500
Br505      Br  0.36253924  0.51184606  0.59041430     0.01000
Br506      Br  0.26000645  0.49466435  0.43057943    -0.02800
Br507      Br  0.23391926  0.58444235  0.50665207    -0.03700
Br508      Br  0.14644832  0.41753116  0.52742160     0.00300
C509        C  0.00558560  0.13788807  0.01362105     0.01700
C510        C  0.03859426  0.15935144  0.01623323     0.04600
C511        C  0.03600110  0.20008931  0.01451995    -0.11500
C512        C  0.00061513  0.21946144  0.00893910     0.23900
C513        C  0.96776579  0.19806523  0.00527937    -0.12100
C514        C  0.97012175  0.15739354  0.00827993     0.05300
C515        C  0.99819619  0.26239666  0.00683812     0.27700
C516        C  0.99167286  0.28417528  0.04078689    -0.12800
C517        C  0.99268739  0.32486770  0.03940234     0.05800
C518        C  0.99946666  0.34398963  0.00381494    -0.08700
C519        C  0.00345737  0.32214232  0.96942208     0.06600
C520        C  0.00355161  0.28139864  0.97108919    -0.13100
Br521      Br  0.91972388  0.22464745  0.99562573    -0.05200
Br522      Br  0.08734586  0.13287782  0.02188136     0.00400
Br523      Br  0.98279674  0.35440449  0.08604168     0.00900
Br524      Br  0.01169181  0.25126778  0.92458253    -0.03500
Br525      Br  0.92479611  0.12827009  0.00468471     0.01000
Br526      Br  0.08086602  0.22963885  0.01970290    -0.02800
Br527      Br  0.98120280  0.25798847  0.08909470    -0.03700
Br528      Br  0.00970220  0.34755392  0.91999133     0.00300
C529        C  0.00062289  0.64827469  0.01829443     0.01700
C530        C  0.00304942  0.66445881  0.05568801     0.04600
C531        C  0.00221639  0.70506043  0.06032793    -0.11500
C532        C  0.00097450  0.72968196  0.02753021     0.23900
C533        C  0.99973605  0.71347974  0.99016577    -0.12100
C534        C  0.99878930  0.67305624  0.98558656     0.05300
C535        C  0.00089939  0.77262851  0.03171037     0.27700
C536        C  0.96743976  0.79513709  0.02464778    -0.12800
C537        C  0.96852465  0.83579809  0.02235332     0.05800
C538        C  0.00258828  0.85432504  0.02922091    -0.08700
C539        C  0.03546658  0.83203258  0.03885855     0.06600
C540        C  0.03485844  0.79124567  0.03932223    -0.13100
Br541      Br  0.99935765  0.74690428  0.94500664    -0.05200
Br542      Br  0.00995633  0.63114974  0.10047014     0.00400
Br543      Br  0.92362971  0.86628967  0.00887075     0.00900
Br544      Br  0.08087403  0.76089566  0.04889070    -0.03500
Br545      Br  0.99301108  0.65204252  0.93436714     0.01000
Br546      Br  0.00209571  0.72704510  0.11160529    -0.02800
Br547      Br  0.92019034  0.77006370  0.01766692    -0.03700
Br548      Br  0.08149002  0.85758502  0.05054183     0.00300
C549        C  0.85178360  0.49304273  0.00202704     0.01700
C550        C  0.83002300  0.49766652  0.03660102     0.04600
C551        C  0.79031735  0.49582197  0.03575222    -0.11500
C552        C  0.77204762  0.48757749  0.00094610     0.23900
C553        C  0.79353457  0.48126596  0.96679696    -0.12100
C554        C  0.83311281  0.48492059  0.96697706     0.05300
C555        C  0.73000373  0.48833653  0.99980505     0.27700
C556        C  0.70989635  0.45583877  0.01190670    -0.12800
C557        C  0.66997813  0.45748699  0.01200441     0.05800
C558        C  0.65006603  0.49163468  0.99990860    -0.08700
C559        C  0.67028082  0.52408158  0.98776737     0.06600
C560        C  0.71012216  0.52238420  0.98767568    -0.13100
Br561      Br  0.76827505  0.46807043  0.91963394    -0.05200
Br562      Br  0.85395063  0.50453284  0.08600037     0.00400
Br563      Br  0.64256218  0.41357472  0.03037835     0.00900
Br564      Br  0.73775151  0.56677175  0.97092687    -0.03500
Br565      Br  0.86065930  0.48129393  0.91825505     0.01000
Br566      Br  0.76049835  0.50527058  0.08227621    -0.02800
Br567      Br  0.73719560  0.40924439  0.02846859    -0.03700
Br568      Br  0.64351046  0.57049830  0.96977849     0.00300
C569        C  0.35226035  0.50347597  0.98383651     0.01700
C570        C  0.33557653  0.46773850  0.97658008     0.04600
C571        C  0.29588383  0.46512927  0.97747671    -0.11500
C572        C  0.27249035  0.49845285  0.98436234     0.23900
C573        C  0.28907412  0.53449342  0.98992921    -0.12100
C574        C  0.32883054  0.53697560  0.98998642     0.05300
C575        C  0.23055638  0.49543547  0.98733413     0.27700
C576        C  0.20835928  0.49489644  0.95368683    -0.12800
C577        C  0.16861458  0.49299136  0.95677022     0.05800
C578        C  0.15062281  0.49277201  0.99363512    -0.08700
C579        C  0.17306197  0.49297964  0.02728364     0.06600
C580        C  0.21283372  0.49365691  0.02407937    -0.13100
Br581      Br  0.25708363  0.58029144  0.99857043    -0.05200
Br582      Br  0.36709565  0.42240478  0.96410320     0.00400
Br583      Br  0.13915685  0.48887098  0.91028904     0.00900
Br584      Br  0.24336040  0.49233805  0.07014188    -0.03500
Br585      Br  0.35104453  0.58581410  0.00094534     0.01000
Br586      Br  0.27347183  0.41561170  0.97061284    -0.02800
Br587      Br  0.23257875  0.49719652  0.90334480    -0.03700
Br588      Br  0.14962619  0.49488998  0.07804508     0.00300
C589        C  0.99306501  0.49503659  0.65265007     0.01700
C590        C  0.95966869  0.48583121  0.67333823     0.04600
C591        C  0.95981965  0.48480233  0.71392145    -0.11500
C592        C  0.99207356  0.49582694  0.73373345     0.23900
C593        C  0.02502578  0.50573233  0.71352271    -0.12100
C594        C  0.02622813  0.50363245  0.67310880     0.05300
C595        C  0.99186742  0.49671052  0.77608916     0.27700
C596        C  0.97573356  0.52917183  0.79553510    -0.12800
C597        C  0.97763372  0.53095637  0.83599063     0.05800
C598        C  0.99686103  0.50095558  0.85640065    -0.08700
C599        C  0.01380776  0.46905842  0.83679609     0.06600
C600        C  0.01039984  0.46636962  0.79664072    -0.13100
Br601      Br  0.06857189  0.52226170  0.74157604    -0.05200
Br602      Br  0.91276328  0.47659335  0.64732892     0.00400
Br603      Br  0.95334947  0.57380821  0.86343860     0.00900
Br604      Br  0.03157744  0.42157781  0.76959814    -0.03500
Br605      Br  0.07454616  0.50983439  0.64709448     0.01000
Br606      Br  0.91609014  0.46805367  0.74270606    -0.02800
Br607      Br  0.95193040  0.57132863  0.76658081    -0.03700
Br608      Br  0.04372205  0.43039474  0.86470418     0.00300
C609        C  0.00065974  0.48959329  0.15162036     0.01700
C610        C  0.03080919  0.50543579  0.17157580     0.04600
C611        C  0.03054550  0.50519150  0.21208206    -0.11500
C612        C  0.99933067  0.49069404  0.23238292     0.23900
C613        C  0.96892406  0.47527234  0.21250896    -0.12100
C614        C  0.97002064  0.47389630  0.17196283     0.05300
C615        C  0.99891326  0.49175729  0.27477611     0.27700
C616        C  0.01120733  0.45880267  0.29579520    -0.12800
C617        C  0.01354260  0.46051441  0.33623958     0.05800
C618        C  0.00490434  0.49598211  0.35555708    -0.08700
C619        C  0.99324246  0.52927900  0.33378975     0.06600
C620        C  0.98904039  0.52662530  0.29363601    -0.13100
Br621      Br  0.92588677  0.45653017  0.24091260    -0.05200
Br622      Br  0.07136008  0.52940911  0.14358267     0.00400
Br623      Br  0.02723511  0.41330747  0.36401080     0.00900
Br624      Br  0.96997872  0.57078632  0.26396245    -0.03500
Br625      Br  0.93054176  0.44911651  0.14438606     0.01000
Br626      Br  0.07279002  0.52477402  0.23993983    -0.02800
Br627      Br  0.02504052  0.41138340  0.26867799    -0.03700
Br628      Br  0.98547710  0.57967632  0.35742887    -0.00500
loop_ 
_geom_bond_atom_site_label_1 
_geom_bond_atom_site_label_2 
_geom_bond_distance 
_geom_bond_site_symmetry_2 
_ccdc_geom_bond_type 
O1           C17   1.271       .  A
O1           Zn7   1.977       .  S
C2           O18   1.271   1_454  A
C2           O15   1.274       .  A
C2          C518   1.480   1_455  S
O3           C16   1.274       .  A
O3          Cd10   2.078       .  S
O4           C22   1.274       .  A
O4          Cd13   2.049       .  S
O5           C19   1.275       .  A
O5           Cd9   2.076       .  S
O6           C17   1.274   1_455  A
O6           Cd9   2.052       .  S
Zn7          O18   2.008       .  S
Zn7          O20   2.007       .  S
Zn7          O12   1.935   1_656  S
O8           C19   1.276   1_554  A
O8          Cd13   2.086       .  S
Cd9          O11   2.075       .  S
Cd9          O12   1.996   1_556  S
Cd10         O14   2.076       .  S
Cd10         O23   2.044       .  S
Cd10         O12   1.995   1_655  S
O11          C21   1.275   1_456  A
O12         Cd13   1.996       .  S
Cd13         O15   2.076       .  S
O14          C21   1.274       .  A
C16          O20   1.270   1_554  A
C16         C549   1.490       .  S
C17         C598   1.452       .  S
C19         C578   1.489       .  S
C21         C529   1.484   1_655  S
C22          O23   1.273   1_455  A
C22         C609   1.455       .  S
O24          C40   1.271   1_455  A
O24         Zn30   2.005       .  S
C25          O41   1.270   1_655  A
C25          O38   1.271       .  A
C25         C589   1.470       .  S
O26          C39   1.274       .  A
O26         Cd33   2.071       .  S
O27          C45   1.274   1_655  A
O27         Cd36   2.071       .  S
O28          C42   1.271       .  A
O28         Cd32   2.057       .  S
O29          C40   1.274       .  A
O29         Cd32   2.078       .  S
Zn30         O41   1.972       .  S
Zn30         O43   2.031       .  S
Zn30         O35   1.935       .  S
O31          C42   1.277       .  A
O31         Cd36   2.093       .  S
Cd32         O34   2.032       .  S
Cd32         O35   1.990   1_655  S
Cd33         O37   2.056       .  S
Cd33         O46   2.090       .  S
Cd33         O35   1.997       .  S
O34          C44   1.271   1_655  A
O35         Cd36   1.999   1_455  S
Cd36         O38   2.042       .  S
O37          C44   1.274       .  A
C39          O43   1.274       .  A
C39         C498   1.485       .  S
C40         C449   1.479       .  S
C42         C469   1.478       .  S
C44         C618   1.475       .  S
C45          O46   1.276       .  A
C45         C429   1.479       .  S
O47          C63   1.275   1_554  A
O47         Zn53   2.031       .  S
C48          O64   1.272       .  A
C48          O61   1.271       .  A
C48         C409   1.450       .  S
O49          C62   1.272       .  A
O49         Cd56   2.065       .  S
O50          C68   1.272   1_554  A
O50         Cd59   2.063       .  S
O51          C65   1.277       .  A
O51         Cd55   2.093       .  S
O52          C63   1.276       .  A
O52         Cd55   2.083       .  S
Zn53         O64   1.993       .  S
Zn53         O66   2.030       .  S
Zn53         O58   1.944   1_554  S
O54          C65   1.273   1_554  A
O54         Cd59   2.062       .  S
Cd55         O57   2.055       .  S
Cd55         O58   2.001       .  S
Cd56         O60   2.035       .  S
Cd56         O69   2.066       .  S
Cd56         O58   1.996       .  S
O57          C67   1.274       .  A
O58         Cd59   1.994   1_556  S
Cd59         O61   2.037       .  S
O60          C67   1.270       .  A
C62          O66   1.274   1_556  A
C62         C558   1.478       .  S
C63         C369   1.481       .  S
C65         C569   1.484       .  S
C67         C398   1.455       .  S
C68          O69   1.273       .  A
C68         C358   1.471       .  S
O70          C86   1.274       .  A
O70         Zn76   2.025       .  S
C71          O87   1.274       .  A
C71          O84   1.276       .  A
C71         C389   1.461       .  S
O72          C85   1.272       .  A
O72         Cd79   2.064       .  S
O73          C91   1.275       .  A
O73         Cd82   2.078       .  S
O74          C88   1.275       .  A
O74         Cd78   2.078       .  S
O75          C86   1.274       .  A
O75         Cd78   2.070       .  S
Zn76         O87   2.001       .  S
Zn76         O89   2.028       .  S
Zn76         O81   1.946       .  S
O77          C88   1.276       .  A
O77         Cd82   2.087       .  S
Cd78         O80   2.062       .  S
Cd78         O81   1.998       .  S
Cd79         O83   2.039       .  S
Cd79         O92   2.067       .  S
Cd79         O81   1.996       .  S
O80          C90   1.275       .  A
O81         Cd82   1.998       .  S
Cd82         O84   2.062       .  S
O83          C90   1.271       .  A
C85          O89   1.273       .  A
C85         C478   1.480       .  S
C86         C329   1.493       .  S
C88         C489   1.492       .  S
C90         C418   1.454       .  S
C91          O92   1.273       .  A
C91         C309   1.492       .  S
N93          C98   1.361   1_455  A
N93          C97   1.354   1_455  A
N93         H125   1.034       .  S
N94         C101   1.353       .  A
N94         C102   1.358       .  A
N95         C100   1.355       .  A
N95          C99   1.362       .  A
N95         H126   1.031       .  S
N96         C103   1.358       .  A
N96         C104   1.353       .  A
C97         C105   1.388       .  A
C97         C113   1.422   1_655  A
C98         C114   1.424   1_665  A
C98         C106   1.386       .  A
C99         C107   1.385   1_455  A
C99         C116   1.425   1_545  A
C100        C115   1.425   1_556  A
C100        C108   1.389   1_455  A
C101        C113   1.423   1_556  A
C101        C109   1.388       .  A
C102        C116   1.423       .  A
C102        C110   1.385       .  A
C103        C111   1.384       .  A
C103        C114   1.422       .  A
C104        C112   1.389       .  A
C104        C115   1.423       .  A
C105        C106   1.376       .  A
C105        H117   1.082       .  S
C106        H118   1.082       .  S
C107        C108   1.374       .  A
C107        H119   1.082       .  S
C108        H120   1.082       .  S
C109        C110   1.376       .  A
C109        H121   1.082       .  S
C110        H122   1.082       .  S
C111        C112   1.373       .  A
C111        H123   1.082       .  S
C112        H124   1.082       .  S
C113        C538   1.492       .  S
C114        C289   1.518       .  S
C115        C509   1.493       .  S
C116        C278   1.518       .  S
N127        C132   1.353       .  A
N127        C131   1.359       .  A
N127        H159   1.039   1_655  S
N128        C135   1.357   1_655  A
N128        C136   1.353   1_655  A
N129        C134   1.358       .  A
N129        C133   1.352       .  A
N129        H160   1.040   1_655  S
N130        C137   1.352       .  A
N130        C138   1.356       .  A
C131        C139   1.387       .  A
C131        C147   1.425       .  A
C132        C148   1.421       .  A
C132        C140   1.387       .  A
C133        C141   1.389       .  A
C133        C150   1.419   1_655  A
C134        C149   1.420       .  A
C134        C142   1.385       .  A
C135        C147   1.422   1_445  A
C135        C143   1.386       .  A
C136        C150   1.420       .  A
C136        C144   1.387       .  A
C137        C145   1.388   1_655  A
C137        C148   1.419       .  A
C138        C146   1.385   1_655  A
C138        C149   1.419   1_565  A
C139        C140   1.380       .  A
C139        H151   1.082       .  S
C140        H152   1.082       .  S
C141        C142   1.379       .  A
C141        H153   1.082       .  S
C142        H154   1.082       .  S
C143        C144   1.378       .  A
C143        H155   1.082       .  S
C144        H156   1.082       .  S
C145        C146   1.376       .  A
C145        H157   1.082       .  S
C146        H158   1.082       .  S
C147        C269   1.519   1_655  S
C148        C458   1.493       .  S
C149        C298   1.513       .  S
C150        C438   1.496       .  S
N161        C166   1.354       .  A
N161        C165   1.361       .  A
N161        H193   1.038       .  S
N162        C169   1.356       .  A
N162        C170   1.352       .  A
N163        C168   1.359       .  A
N163        C167   1.355       .  A
N163        H194   1.035       .  S
N164        C171   1.355       .  A
N164        C172   1.358       .  A
C165        C173   1.387       .  A
C165        C181   1.428       .  A
C166        C182   1.422       .  A
C166        C174   1.387       .  A
C167        C175   1.388       .  A
C167        C184   1.423   1_554  A
C168        C183   1.426       .  A
C168        C176   1.387       .  A
C169        C181   1.422   1_545  A
C169        C177   1.387       .  A
C170        C184   1.418       .  A
C170        C178   1.386       .  A
C171        C179   1.387       .  A
C171        C182   1.423   1_554  A
C172        C180   1.386       .  A
C172        C183   1.424   1_565  A
C173        C174   1.380       .  A
C173        H185   1.082       .  S
C174        H186   1.082       .  S
C175        C176   1.376       .  A
C175        H187   1.082       .  S
C176        H188   1.082       .  S
C177        C178   1.376       .  A
C177        H189   1.082       .  S
C178        H190   1.082       .  S
C179        C180   1.374       .  A
C179        H191   1.082       .  S
C180        H192   1.082       .  S
C181        C238   1.521       .  S
C182        C378   1.499       .  S
C183        C258   1.514       .  S
C184        C349   1.494       .  S
N195        C200   1.352       .  A
N195        C199   1.361       .  A
N195        H227   1.038       .  S
N196        C203   1.356       .  A
N196        C204   1.351       .  A
N197        C202   1.360       .  A
N197        C201   1.352       .  A
N197        H228   1.036       .  S
N198        C205   1.352       .  A
N198        C206   1.357       .  A
C199        C207   1.386       .  A
C199        C215   1.424       .  A
C200        C216   1.420       .  A
C200        C208   1.388       .  A
C201        C209   1.389       .  A
C201        C218   1.422       .  A
C202        C217   1.423   1_565  A
C202        C210   1.386       .  A
C203        C215   1.420   1_565  A
C203        C211   1.385       .  A
C204        C218   1.418       .  A
C204        C212   1.387       .  A
C205        C213   1.388       .  A
C205        C216   1.420       .  A
C206        C214   1.386       .  A
C206        C217   1.421       .  A
C207        C208   1.377       .  A
C207        H219   1.082       .  S
C208        H220   1.082       .  S
C209        C210   1.375       .  A
C209        H221   1.082       .  S
C210        H222   1.082       .  S
C211        C212   1.375       .  A
C211        H223   1.082       .  S
C212        H224   1.082       .  S
C213        C214   1.374       .  A
C213        H225   1.082       .  S
C214        H226   1.082       .  S
C215        C249   1.518       .  S
C216        C318   1.489       .  S
C217        C229   1.512       .  S
C218        C338   1.487       .  S
C229        C230   1.415   1_545  A
C229        C234   1.412       .  A
C230        C231   1.418       .  A
C230       Br242   1.929       .  S
C231        C232   1.416       .  A
C231       Br246   1.929       .  S
C232        C235   1.511       .  S
C232        C233   1.415   1_565  A
C233        C234   1.414       .  A
C233       Br241   1.930       .  S
C234       Br245   1.929       .  S
C235        C236   1.414       .  A
C235        C240   1.414   1_565  A
C236        C237   1.416       .  A
C236       Br247   1.930       .  S
C237        C238   1.418       .  A
C237       Br243   1.931       .  S
C238        C239   1.420   1_565  A
C239        C240   1.417       .  A
C239       Br248   1.931       .  S
C240       Br244   1.931       .  S
C249        C250   1.416       .  A
C249        C254   1.416   1_545  A
C250        C251   1.418       .  A
C250       Br262   1.930       .  S
C251        C252   1.417       .  A
C251       Br266   1.929       .  S
C252        C255   1.515       .  S
C252        C253   1.415   1_545  A
C253        C254   1.415       .  A
C253       Br261   1.930       .  S
C254       Br265   1.930       .  S
C255        C256   1.417   1_545  A
C255        C260   1.417       .  A
C256        C257   1.417       .  A
C256       Br267   1.929       .  S
C257        C258   1.413   1_565  A
C257       Br263   1.929       .  S
C258        C259   1.413       .  A
C259        C260   1.416       .  A
C259       Br268   1.930       .  S
C260       Br264   1.930       .  S
C269        C270   1.418   1_465  A
C269        C274   1.417       .  A
C270        C271   1.418       .  A
C270       Br282   1.930       .  S
C271        C272   1.414   1_645  A
C271       Br286   1.929       .  S
C272        C275   1.513       .  S
C272        C273   1.414       .  A
C273        C274   1.417       .  A
C273       Br281   1.929       .  S
C274       Br285   1.930       .  S
C275        C276   1.414   1_565  A
C275        C280   1.415   1_455  A
C276        C277   1.416       .  A
C276       Br287   1.929       .  S
C277        C278   1.415   1_545  A
C277       Br283   1.928       .  S
C278        C279   1.415   1_455  A
C279        C280   1.418       .  A
C279       Br288   1.929       .  S
C280       Br284   1.929       .  S
C289        C290   1.416   1_545  A
C289        C294   1.417   1_455  A
C290        C291   1.416       .  A
C290       Br302   1.930       .  S
C291        C292   1.414   1_465  A
C291       Br306   1.930       .  S
C292        C295   1.510       .  S
C292        C293   1.414       .  A
C293        C294   1.417       .  A
C293       Br301   1.930       .  S
C294       Br305   1.929       .  S
C295        C296   1.415   1_545  A
C295        C300   1.414   1_655  A
C296        C297   1.416       .  A
C296       Br307   1.930       .  S
C297        C298   1.415   1_565  A
C297       Br303   1.930       .  S
C298        C299   1.416   1_655  A
C299        C300   1.416       .  A
C299       Br308   1.930       .  S
C300       Br304   1.930       .  S
C309        C310   1.421       .  A
C309        C314   1.418       .  A
C310        C311   1.410       .  A
C310       Br322   1.934       .  S
C311        C312   1.406       .  A
C311       Br326   1.932       .  S
C312        C315   1.485       .  S
C312        C313   1.406       .  A
C313        C314   1.408       .  A
C313       Br321   1.932       .  S
C314       Br325   1.933       .  S
C315        C316   1.409       .  A
C315        C320   1.410       .  A
C316        C317   1.407       .  A
C316       Br327   1.929       .  S
C317        C318   1.410       .  A
C317       Br323   1.929       .  S
C318        C319   1.409       .  A
C319        C320   1.407       .  A
C319       Br328   1.929       .  S
C320       Br324   1.928       .  S
C329        C330   1.421       .  A
C329        C334   1.421       .  A
C330        C331   1.409       .  A
C330       Br342   1.931       .  S
C331        C332   1.405       .  A
C331       Br346   1.932       .  S
C332        C335   1.483       .  S
C332        C333   1.405       .  A
C333        C334   1.408       .  A
C333       Br341   1.932       .  S
C334       Br345   1.934       .  S
C335        C336   1.410       .  A
C335        C340   1.408       .  A
C336        C337   1.407       .  A
C336       Br347   1.929       .  S
C337        C338   1.408       .  A
C337       Br343   1.928       .  S
C338        C339   1.409       .  A
C339        C340   1.405       .  A
C339       Br348   1.930       .  S
C340       Br344   1.929       .  S
C349        C350   1.412       .  A
C349        C354   1.410       .  A
C350        C351   1.408       .  A
C350       Br362   1.929       .  S
C351        C352   1.409       .  A
C351       Br366   1.930       .  S
C352        C355   1.486       .  S
C352        C353   1.410       .  A
C353        C354   1.409       .  A
C353       Br361   1.929   1_556  S
C354       Br365   1.927   1_556  S
C355        C356   1.411   1_556  A
C355        C360   1.409       .  A
C356        C357   1.408       .  A
C356       Br367   1.928       .  S
C357        C358   1.408   1_554  A
C357       Br363   1.930       .  S
C358        C359   1.408       .  A
C359        C360   1.406       .  A
C359       Br368   1.930       .  S
C360       Br364   1.928       .  S
C369        C370   1.411   1_556  A
C369        C374   1.410       .  A
C370        C371   1.412       .  A
C370       Br382   1.929       .  S
C371        C372   1.412   1_554  A
C371       Br386   1.928       .  S
C372        C375   1.493       .  S
C372        C373   1.410       .  A
C373        C374   1.409       .  A
C373       Br381   1.928       .  S
C374       Br385   1.931       .  S
C375        C376   1.410       .  A
C375        C380   1.411   1_556  A
C376        C377   1.410       .  A
C376       Br387   1.929       .  S
C377        C378   1.412       .  A
C377       Br383   1.929       .  S
C378        C379   1.411   1_556  A
C379        C380   1.412       .  A
C379       Br388   1.927       .  S
C380       Br384   1.928       .  S
C389        C390   1.408       .  A
C389        C394   1.407       .  A
C390        C391   1.403       .  A
C390       Br402   1.929       .  S
C391        C392   1.408       .  A
C391       Br406   1.930       .  S
C392        C395   1.469       .  S
C392        C393   1.407       .  A
C393        C394   1.400       .  A
C393       Br401   1.931       .  S
C394       Br405   1.929       .  S
C395        C396   1.409       .  A
C395        C400   1.408       .  A
C396        C397   1.400       .  A
C396       Br407   1.931       .  S
C397        C398   1.406       .  A
C397       Br403   1.933       .  S
C398        C399   1.407       .  A
C399        C400   1.402       .  A
C399       Br408   1.932       .  S
C400       Br404   1.929       .  S
C409        C410   1.406       .  A
C409        C414   1.404       .  A
C410        C411   1.401       .  A
C410       Br422   1.931       .  S
C411        C412   1.408       .  A
C411       Br426   1.929       .  S
C412        C415   1.465       .  S
C412        C413   1.407       .  A
C413        C414   1.399       .  A
C413       Br421   1.930       .  S
C414       Br425   1.930       .  S
C415        C416   1.407       .  A
C415        C420   1.407       .  A
C416        C417   1.400       .  A
C416       Br427   1.930       .  S
C417        C418   1.405       .  A
C417       Br423   1.929       .  S
C418        C419   1.406       .  A
C419        C420   1.401       .  A
C419       Br428   1.930       .  S
C420       Br424   1.930       .  S
C429        C430   1.408   1_455  A
C429        C434   1.411       .  A
C430        C431   1.409       .  A
C430       Br442   1.926       .  S
C431        C432   1.411   1_655  A
C431       Br446   1.930       .  S
C432        C435   1.490       .  S
C432        C433   1.411       .  A
C433        C434   1.410       .  A
C433       Br441   1.929       .  S
C434       Br445   1.930       .  S
C435        C436   1.411   1_455  A
C435        C440   1.410       .  A
C436        C437   1.409       .  A
C436       Br447   1.930       .  S
C437        C438   1.411   1_655  A
C437       Br443   1.929       .  S
C438        C439   1.413       .  A
C439        C440   1.410       .  A
C439       Br448   1.930       .  S
C440       Br444   1.929       .  S
C449        C450   1.410   1_655  A
C449        C454   1.413       .  A
C450        C451   1.408       .  A
C450       Br462   1.929       .  S
C451        C452   1.409   1_455  A
C451       Br466   1.929       .  S
C452        C455   1.486       .  S
C452        C453   1.409       .  A
C453        C454   1.408       .  A
C453       Br461   1.930       .  S
C454       Br465   1.932       .  S
C455        C456   1.409   1_655  A
C455        C460   1.410       .  A
C456        C457   1.408       .  A
C456       Br467   1.929       .  S
C457        C458   1.411   1_455  A
C457       Br463   1.929       .  S
C458        C459   1.411       .  A
C459        C460   1.408       .  A
C459       Br468   1.928       .  S
C460       Br464   1.930       .  S
C469        C470   1.412       .  A
C469        C474   1.409       .  A
C470        C471   1.409       .  A
C470       Br482   1.931       .  S
C471        C472   1.409       .  A
C471       Br486   1.929       .  S
C472        C475   1.486       .  S
C472        C473   1.409       .  A
C473        C474   1.407       .  A
C473       Br481   1.930       .  S
C474       Br485   1.927       .  S
C475        C476   1.409       .  A
C475        C480   1.409       .  A
C476        C477   1.410       .  A
C476       Br487   1.929       .  S
C477        C478   1.412       .  A
C477       Br483   1.930       .  S
C478        C479   1.411       .  A
C479        C480   1.407       .  A
C479       Br488   1.931       .  S
C480       Br484   1.930       .  S
C489        C490   1.417       .  A
C489        C494   1.417       .  A
C490        C491   1.410       .  A
C490       Br502   1.932       .  S
C491        C492   1.408       .  A
C491       Br506   1.931       .  S
C492        C495   1.491       .  S
C492        C493   1.409       .  A
C493        C494   1.412       .  A
C493       Br501   1.930       .  S
C494       Br505   1.931       .  S
C495        C496   1.410       .  A
C495        C500   1.409       .  A
C496        C497   1.411       .  A
C496       Br507   1.930       .  S
C497        C498   1.414       .  A
C497       Br503   1.931       .  S
C498        C499   1.413       .  A
C499        C500   1.409       .  A
C499       Br508   1.932       .  S
C500       Br504   1.929       .  S
C509        C510   1.411       .  A
C509        C514   1.412   1_455  A
C510        C511   1.407       .  A
C510       Br522   1.929       .  S
C511        C512   1.409       .  A
C511       Br526   1.930       .  S
C512        C515   1.483   1_455  S
C512        C513   1.408   1_455  A
C513        C514   1.406       .  A
C513       Br521   1.929   1_554  S
C514       Br525   1.930       .  S
C515        C516   1.408       .  A
C515        C520   1.407   1_654  A
C516        C517   1.407       .  A
C516       Br527   1.930       .  S
C517        C518   1.413       .  A
C517       Br523   1.932       .  S
C518        C519   1.413   1_654  A
C519        C520   1.407       .  A
C519       Br528   1.927       .  S
C520       Br524   1.931       .  S
C529        C530   1.414       .  A
C529        C534   1.412   1_454  A
C530        C531   1.411       .  A
C530       Br542   1.932       .  S
C531        C532   1.411       .  A
C531       Br546   1.930       .  S
C532        C535   1.491       .  S
C532        C533   1.411   1_454  A
C533        C534   1.407       .  A
C533       Br541   1.932       .  S
C534       Br545   1.931       .  S
C535        C536   1.411   1_455  A
C535        C540   1.412       .  A
C536        C537   1.407       .  A
C536       Br547   1.929       .  S
C537        C538   1.409   1_655  A
C537       Br543   1.929       .  S
C538        C539   1.410       .  A
C539        C540   1.409       .  A
C539       Br548   1.929       .  S
C540       Br544   1.930       .  S
C549        C550   1.418       .  A
C549        C554   1.420   1_554  A
C550        C551   1.408       .  A
C550       Br562   1.932       .  S
C551        C552   1.407       .  A
C551       Br566   1.932       .  S
C552        C555   1.486   1_554  S
C552        C553   1.407   1_554  A
C553        C554   1.409       .  A
C553       Br561   1.931       .  S
C554       Br565   1.934       .  S
C555        C556   1.410   1_556  A
C555        C560   1.409       .  A
C556        C557   1.409       .  A
C556       Br567   1.929       .  S
C557        C558   1.412   1_554  A
C557       Br563   1.931       .  S
C558        C559   1.411       .  A
C559        C560   1.407       .  A
C559       Br568   1.931       .  S
C560       Br564   1.931       .  S
C569        C570   1.414       .  A
C569        C574   1.411       .  A
C570        C571   1.409       .  A
C570       Br582   1.932       .  S
C571        C572   1.409       .  A
C571       Br586   1.930       .  S
C572        C575   1.492       .  S
C572        C573   1.412       .  A
C573        C574   1.411       .  A
C573       Br581   1.929       .  S
C574       Br585   1.930   1_556  S
C575        C576   1.410       .  A
C575        C580   1.409   1_556  A
C576        C577   1.411       .  A
C576       Br587   1.929       .  S
C577        C578   1.415       .  A
C577       Br583   1.932       .  S
C578        C579   1.414   1_556  A
C579        C580   1.409       .  A
C579       Br588   1.928       .  S
C580       Br584   1.931       .  S
C589        C590   1.417       .  A
C589        C594   1.418   1_655  A
C590        C591   1.401       .  A
C590       Br602   1.933       .  S
C591        C592   1.403       .  A
C591       Br606   1.932       .  S
C592        C595   1.462       .  S
C592        C593   1.403   1_655  A
C593        C594   1.397       .  A
C593       Br601   1.935       .  S
C594       Br605   1.938       .  S
C595        C596   1.407       .  A
C595        C600   1.406   1_655  A
C596        C597   1.400       .  A
C596       Br607   1.931       .  S
C597        C598   1.406       .  A
C597       Br603   1.929       .  S
C598        C599   1.406   1_655  A
C599        C600   1.396       .  A
C599       Br608   1.929       .  S
C600       Br604   1.932       .  S
C609        C610   1.406       .  A
C609        C614   1.408   1_455  A
C610        C611   1.397       .  A
C610       Br622   1.929       .  S
C611        C612   1.406   1_455  A
C611       Br626   1.932       .  S
C612        C615   1.463       .  S
C612        C613   1.406       .  A
C613        C614   1.400       .  A
C613       Br621   1.930       .  S
C614       Br625   1.929       .  S
C615        C616   1.402   1_655  A
C615        C620   1.402       .  A
C616        C617   1.401       .  A
C616       Br627   1.934       .  S
C617        C618   1.419       .  A
C617       Br623   1.933       .  S
C618        C619   1.419   1_455  A
C619        C620   1.399       .  A
C619       Br628   1.935       .  S
C620       Br624   1.934       .  S
