geometry optimzed in LAMMPS
_audit_creation_date              2020-11-30 
_audit_creation_method            'lammps2cif' 
_symmetry_space_group_name_H-M    'P1' 
_symmetry_Int_Tables_number       1 
_symmetry_cell_setting            triclinic 
loop_ 
_symmetry_equiv_pos_as_xyz 
  x,y,z 
_cell_length_a                    24.5959535 
_cell_length_b                    37.68523768912052 
_cell_length_c                    47.80806491393381 
_cell_angle_alpha                 81.71810766622897 
_cell_angle_beta                  89.998097789414 
_cell_angle_gamma                 90.24373763323497 
loop_ 
_atom_site_label 
_atom_site_type_symbol 
_atom_site_fract_x 
_atom_site_fract_y 
_atom_site_fract_z 
_atom_site_charge 
C1          C  0.54810055  0.26963721  0.00434465     0.02300
C2          C  0.55299585  0.23648752  0.49712962     0.02200
C3          C  0.50411768  0.21660611  0.49511652    -0.18300
C4          C  0.45139357  0.23059462  0.49917758     0.02300
C5          C  0.44653404  0.26423266  0.00521349     0.02200
C6          C  0.49532058  0.28415353  0.00677095    -0.18300
H7          H  0.49211378  0.31168815  0.01073797     0.04300
H8          H  0.50743738  0.18850129  0.49275126     0.04300
C9          C  0.94282124  0.47817984  0.04149498     0.02300
C10         C  0.94866507  0.01367659  0.04402635     0.02200
C11         C  0.00156051  0.02869309  0.04596840    -0.18300
C12         C  0.05071540  0.00893631  0.04473339     0.02300
C13         C  0.04465067  0.47170227  0.04127778     0.02200
C14         C  0.99113899  0.45765221  0.03986091    -0.18300
H15         H  0.98695941  0.42986027  0.03665460     0.04300
H16         H  0.00464530  0.05729042  0.04659747     0.04300
Zr17       Zr  0.21279529  0.07523965  0.06980435     2.19900
O18         O  0.20825211  0.02009219  0.10333435    -0.51300
O19         O  0.15172510  0.10598988  0.09780144    -0.74500
O20         O  0.26443800  0.08027517  0.11310059    -0.81300
O21         O  0.11096549  0.04636500  0.01518704    -0.83100
O22         O  0.32990068  0.12323351  0.10325059    -0.78700
O23         O  0.13197350  0.03657962  0.06205789    -0.90300
O24         O  0.17017584  0.16507151  0.08578131    -0.76300
O25         O  0.24678380  0.13494355  0.06755452    -0.85800
O26         O  0.15804537  0.11230021  0.03664602    -0.85500
O27         O  0.30807278  0.07558620  0.05649752    -0.72200
O28         O  0.22777697  0.05340873  0.02596061    -0.84400
Zr29       Zr  0.30066518  0.15555205  0.47610689     2.26400
Zr30       Zr  0.33991316  0.13649163  0.05299927     2.06300
Zr31       Zr  0.17231355  0.09648721  0.49249542     2.10000
Zr32       Zr  0.19193359  0.17163834  0.03515029     1.78800
O33         O  0.15074803  0.05206908  0.46182535    -0.93200
O34         O  0.23098574  0.22526409  0.04931235    -0.41000
O35         O  0.20612526  0.15657510  0.49029910    -0.77600
O36         O  0.28548613  0.17442868  0.01976726    -0.96300
O37         O  0.35729214  0.11430204  0.00971412    -0.89600
O38         O  0.26476901  0.09647039  0.47865489    -0.92400
C39         C  0.15448551  0.13806610  0.10362088     1.01300
C40         C  0.10240773  0.03091442  0.04055190     1.14200
C41         C  0.30159056  0.10140441  0.12033232     1.05000
O42         O  0.37555579  0.18047071  0.08102470    -0.94600
O43         O  0.39852215  0.18499946  0.03052168    -0.90300
O44         O  0.37651029  0.19733074  0.48284770    -0.83500
C45         C  0.40527553  0.20421667  0.50402311     1.11700
O46         O  0.35598034  0.00546347  0.04570331    -0.96600
Zr47       Zr  0.32044086  0.05939804  0.51113235     1.88900
O48         O  0.36188121  0.12163403  0.44963542    -0.73200
O49         O  0.42284666  0.10164900  0.06191736    -0.52500
O50         O  0.41920811  0.04517844  0.00772784    -0.97200
O51         O  0.27421301  0.00798072  0.49747964    -0.54400
O52         O  0.34706286  0.06221994  0.46178439    -0.73700
C53         C  0.35938665  0.08951476  0.44360092     0.98600
O54         O  0.31116459  0.20399828  0.43653680    -0.62600
O55         O  0.08411896  0.12573842  0.48624412    -0.57400
O56         O  0.24571900  0.15922827  0.43353564    -0.94000
O57         O  0.17718628  0.11825630  0.44210316    -0.92500
O58         O  0.09396212  0.18103234  0.03622036    -0.92800
O59         O  0.15312102  0.22053536  0.00236946    -0.91600
C60         C  0.20581069  0.14100519  0.42564007     1.17500
H61         H  0.12008051  0.11051370  0.04186238     0.33400
H62         H  0.29874241  0.19866823  0.01812662     0.44200
H63         H  0.26282665  0.08862870  0.46038504     0.37800
H64         H  0.32816092  0.06082063  0.07110930     0.34300
H65         H  0.26567201  0.21778259  0.05879906     0.26000
H66         H  0.45218010  0.11798936  0.05371156     0.32000
H67         H  0.42486305  0.03302467  0.49785331     0.37900
H68         H  0.07913104  0.16968707  0.02039805     0.32300
H69         H  0.09033612  0.14694043  0.47177195     0.31200
H70         H  0.11262812  0.05701651  0.45588594     0.32900
H71         H  0.23985331  0.01733646  0.48854961     0.31900
H72         H  0.15328985  0.21204479  0.98371623     0.35900
H73         H  0.32075576  0.22626840  0.44408309     0.28600
H74         H  0.19097554  0.02699037  0.12046082     0.32800
H75         H  0.38495391  0.01572310  0.05652743     0.35700
H76         H  0.06291871  0.10377621  0.97632862     0.28300
H77         H  0.34436979  0.19786786  0.42656005     0.41200
H78         H  0.34411354  0.19559400  0.08441077     0.31200
H79         H  0.24138049  0.24001894  0.03136993     0.38800
H80         H  0.26316267  0.99378207  0.51556397     0.30700
H81         H  0.42837098  0.09959784  0.08260287     0.30800
H82         H  0.24633269  0.01438308  0.10895500     0.31000
Zr83       Zr  0.72703917  0.18068445  0.47525324     2.17500
O84         O  0.73703360  0.24160658  0.45074064    -0.51300
O85         O  0.67637868  0.16087882  0.43723633    -0.74500
O86         O  0.78426988  0.18056824  0.43367518    -0.81300
O87         O  0.60921770  0.19359077  0.02697056    -0.83100
O88         O  0.83101285  0.12807850  0.43995261    -0.78700
O89         O  0.64090243  0.21526655  0.48120559    -0.90300
O90         O  0.68253568  0.10076557  0.44618936    -0.76300
O91         O  0.75338576  0.12054873  0.47232139    -0.85800
O92         O  0.66186289  0.13853181  0.00148255    -0.85500
O93         O  0.82013971  0.17144082  0.49201045    -0.72200
O94         O  0.73723505  0.18951520  0.02315368    -0.84400
Zr95       Zr  0.78640170  0.08039581  0.06456272     2.26400
Zr96       Zr  0.84300864  0.10956930  0.49010332     2.06300
Zr97       Zr  0.67242410  0.14940057  0.04894679     2.10000
Zr98       Zr  0.68827409  0.07919918  0.99707867     1.78800
O99         O  0.64760748  0.19666793  0.07630685    -0.93200
O100        O  0.72129387  0.03089963  0.47629271    -0.41000
O101        O  0.69537302  0.08827262  0.04579982    -0.77600
O102        O  0.77746448  0.06683689  0.01714268    -0.96300
O103        O  0.85268253  0.11774482  0.03840841    -0.89600
O104        O  0.76246494  0.14094822  0.06596665    -0.92400
C105        C  0.67500881  0.13006878  0.42917472     1.01300
C106        C  0.60530629  0.21550285  0.50136282     1.14200
C107        C  0.81256505  0.15608150  0.42452734     1.05000
O108        O  0.87309719  0.06594030  0.46050084    -0.94600
O109        O  0.90030619  0.05937862  0.01485919    -0.90300
O110        O  0.86580839  0.04099247  0.05873940    -0.83500
C111        C  0.90128921  0.03915484  0.03896976     1.11700
O112        O  0.86705293  0.23451344  0.01858888    -0.96600
Zr113      Zr  0.82833165  0.17804139  0.04134346     1.88900
O114        O  0.84026353  0.09931848  0.10159213    -0.73200
O115        O  0.93044682  0.13989979  0.48173639    -0.52500
O116        O  0.92736061  0.18224271  0.04112508    -0.97200
O117        O  0.79294500  0.22351913  0.06766229    -0.54400
O118        O  0.85608161  0.15878997  0.09044286    -0.73700
C119        C  0.85471571  0.12956288  0.10816036     0.98600
O120        O  0.76906693  0.02326085  0.09384764    -0.62600
O121        O  0.58837497  0.11501248  0.05680824    -0.57400
O122        O  0.73213669  0.08382125  0.10753839    -0.94000
O123        O  0.67200076  0.12988521  0.09913258    -0.92500
O124        O  0.59121614  0.07907380  0.98682345    -0.92800
O125        O  0.63195693  0.03040749  0.02026537    -0.91600
C126        C  0.69664721  0.10536678  0.11557034     1.17500
H127        H  0.62667479  0.14587814  0.49457314     0.33400
H128        H  0.78774901  0.04226006  0.01659297     0.44200
H129        H  0.76236645  0.14698298  0.08468171     0.37800
H130        H  0.84430610  0.18696327  0.47985700     0.34300
H131        H  0.70031131  0.03245386  0.45850272     0.26000
H132        H  0.95701502  0.12026590  0.48158003     0.32000
H133        H  0.94038243  0.15716129  0.04406197     0.37900
H134        H  0.58957611  0.06613600  0.47152970     0.32300
H135        H  0.57311232  0.12179812  0.07444588     0.31200
H136        H  0.61032776  0.19051683  0.08327211     0.32900
H137        H  0.79787189  0.21371569  0.08783047     0.31900
H138        H  0.61788303  0.03896986  0.03750124     0.35900
H139        H  0.72969009  0.01853886  0.09213808     0.28600
H140        H  0.72273373  0.24063594  0.43154468     0.32800
H141        H  0.88430089  0.22949456  0.00087768     0.35700
H142        H  0.56346120  0.12601165  0.04177447     0.28300
H143        H  0.78789007  0.00491061  0.08464571     0.41200
H144        H  0.90926621  0.07465084  0.45335397     0.31200
H145        H  0.75886324  0.03714414  0.46989753     0.38800
H146        H  0.75307765  0.22325623  0.06495262     0.30700
H147        H  0.92890364  0.15161332  0.46184064     0.30800
H148        H  0.77666479  0.24519331  0.44805239     0.31000
Zr149      Zr  0.75809177  0.42819648  0.05671476     2.17500
O150        O  0.72861015  0.48985986  0.05263208    -0.51300
O151        O  0.79567323  0.41387517  0.10339396    -0.74500
O152        O  0.69659117  0.42468661  0.09709457    -0.81300
O153        O  0.89139618  0.44139210  0.01555969    -0.83100
O154        O  0.64281137  0.37554030  0.09734163    -0.78700
O155        O  0.84739444  0.46143127  0.05211748    -0.90300
O156        O  0.79823598  0.35335025  0.10935425    -0.76300
O157        O  0.72933077  0.36849530  0.07296815    -0.85800
O158        O  0.82807066  0.38903848  0.04655526    -0.85500
O159        O  0.67154461  0.41706466  0.03530024    -0.72200
O160        O  0.76309996  0.43812285  0.00621668    -0.84400
Zr161      Zr  0.72395617  0.32878777  0.49181998     2.26400
Zr162      Zr  0.64555617  0.35589061  0.05153517     2.06300
Zr163      Zr  0.83531628  0.39836810  0.49792564     2.10000
Zr164      Zr  0.80004559  0.33028673  0.06453883     1.78800
O165        O  0.85472553  0.44909625  0.46164483    -0.93200
O166        O  0.76306416  0.28002966  0.09665799    -0.41000
O167        O  0.80895244  0.33746258  0.01405615    -0.77600
O168        O  0.71662345  0.31623152  0.04199741    -0.96300
O169        O  0.65143698  0.36450315  0.00170156    -0.89600
O170        O  0.75193335  0.38861282  0.47541894    -0.92400
C171        C  0.79997343  0.38345866  0.11898067     1.01300
C172        C  0.88963415  0.46023470  0.03587941     1.14200
C173        C  0.66296234  0.40093902  0.10923947     1.05000
O174        O  0.61168593  0.30588266  0.08503156    -0.94600
O175        O  0.59058687  0.31293635  0.02920463    -0.90300
O176        O  0.64005845  0.29335188  0.49466281    -0.83500
C177        C  0.59622985  0.29237602  0.00998192     1.11700
O178        O  0.63135465  0.48047308  0.98804039    -0.96600
Zr179      Zr  0.68061315  0.42671428  0.48407577     1.88900
O180        O  0.68604626  0.34344174  0.44505990    -0.73200
O181        O  0.55864041  0.38661506  0.05122993    -0.52500
O182        O  0.57869059  0.41940269  0.98337158    -0.97200
O183        O  0.71477575  0.47028053  0.44538191    -0.54400
O184        O  0.66435006  0.40256935  0.44046525    -0.73700
C185        C  0.66935566  0.37272397  0.43073618     0.98600
O186        O  0.75179261  0.26666872  0.49861343    -0.62600
O187        O  0.92596704  0.37289897  0.49844607    -0.57400
O188        O  0.78730951  0.32647771  0.45347487    -0.94000
O189        O  0.84888612  0.37173620  0.45551281    -0.92500
O190        O  0.89310991  0.33368465  0.08170102    -0.92800
O191        O  0.86110978  0.28116385  0.05948891    -0.91600
C192        C  0.82578222  0.34755716  0.44327632     1.17500
H193        H  0.86194939  0.39379699  0.05549993     0.33400
H194        H  0.70590186  0.29167373  0.04818925     0.44200
H195        H  0.75773483  0.39319103  0.45532811     0.37800
H196        H  0.64449361  0.43318679  0.04089106     0.34300
H197        H  0.79329350  0.27246073  0.10982483     0.26000
H198        H  0.53820817  0.37846608  0.03547195     0.32000
H199        H  0.57191263  0.42198709  0.46350457     0.37900
H200        H  0.89192983  0.32254117  0.10176284     0.32300
H201        H  0.94757507  0.39092181  0.48595293     0.31200
H202        H  0.89010054  0.44333643  0.45353983     0.32900
H203        H  0.68575811  0.47255244  0.43088788     0.31900
H204        H  0.88444643  0.29048359  0.04316848     0.35900
H205        H  0.79109105  0.26767553  0.49413638     0.28600
H206        H  0.69195965  0.48828737  0.06127562     0.32800
H207        H  0.61051123  0.48608158  0.97023798     0.35700
H208        H  0.94452044  0.38310960  0.98463912     0.28300
H209        H  0.75056156  0.25983355  0.51934969     0.41200
H210        H  0.64312436  0.28967335  0.08911324     0.31200
H211        H  0.73644693  0.29100336  0.10832881     0.38800
H212        H  0.74476151  0.45798378  0.43690812     0.30700
H213        H  0.53990783  0.37499790  0.06850761     0.30800
H214        H  0.72193881  0.49635134  0.03216552     0.31000
Zr215      Zr  0.26577009  0.31933135  0.48668227     2.17500
O216        O  0.24540427  0.25894492  0.47703158    -0.51300
O217        O  0.30803198  0.34252458  0.44240418    -0.74500
O218        O  0.20584433  0.32261207  0.44626462    -0.81300
O219        O  0.39295948  0.29998400  0.03208686    -0.83100
O220        O  0.14436919  0.36745618  0.44824966    -0.78700
O221        O  0.35344905  0.28556514  0.49255613    -0.90300
O222        O  0.30125372  0.40242247  0.43990308    -0.76300
O223        O  0.23296814  0.37883490  0.47397740    -0.85800
O224        O  0.33079275  0.35686727  0.00256047    -0.85500
O225        O  0.17675470  0.32148355  0.00774996    -0.72200
O226        O  0.26615442  0.30079175  0.03702200    -0.84400
Zr227      Zr  0.21232830  0.40482713  0.06209464     2.26400
Zr228      Zr  0.14675570  0.38585233  0.49537395     2.06300
Zr229      Zr  0.33165994  0.34081598  0.05278425     2.10000
Zr230      Zr  0.29937127  0.41751741  0.48759418     1.78800
O231        O  0.34659851  0.28876131  0.08837596    -0.93200
O232        O  0.26121862  0.46789066  0.45611456    -0.41000
O233        O  0.29996189  0.40111369  0.03964075    -0.77600
O234        O  0.21025920  0.42288762  0.01156786    -0.96300
O235        O  0.14573877  0.36680077  0.04596645    -0.89600
O236        O  0.24483336  0.34513022  0.07439174    -0.92400
C237        C  0.30853093  0.37404952  0.42843638     1.01300
C238        C  0.39425626  0.28559680  0.50971184     1.14200
C239        C  0.16784045  0.34356031  0.43573157     1.05000
O240        O  0.10911638  0.43225777  0.46005243    -0.94600
O241        O  0.08971287  0.42855338  0.01601338    -0.90300
O242        O  0.13041437  0.44304183  0.05557157    -0.83500
C243        C  0.09186493  0.44678066  0.03710755     1.11700
O244        O  0.13186032  0.25296567  0.04909158    -0.96600
Zr245      Zr  0.17819411  0.30729006  0.05813951     1.88900
O246        O  0.16694488  0.37805498  0.10619605    -0.73200
O247        O  0.06086393  0.34773055  0.99898218    -0.52500
O248        O  0.07904771  0.30604436  0.05797774    -0.97200
O249        O  0.21379216  0.25877562  0.09261295    -0.54400
O250        O  0.15425368  0.31867957  0.10471041    -0.73700
C251        C  0.15303373  0.34613440  0.11751723     0.98600
O252        O  0.22645712  0.46556543  0.07231517    -0.62600
O253        O  0.42286827  0.36531464  0.05585166    -0.57400
O254        O  0.27820195  0.40830657  0.09924062    -0.94000
O255        O  0.34581577  0.36866819  0.09537955    -0.92500
O256        O  0.38549450  0.43258231  0.96876818    -0.92800
O257        O  0.36016793  0.45912029  0.00377388    -0.91600
C258        C  0.32187357  0.39192653  0.10825139     1.17500
H259        H  0.36670256  0.35563703  0.49322689     0.33400
H260        H  0.19749237  0.44724615  0.00725429     0.44200
H261        H  0.24987718  0.33897453  0.09451017     0.37800
H262        H  0.15175786  0.30861581  0.50004721     0.34300
H263        H  0.28931697  0.47439974  0.44142518     0.26000
H264        H  0.03646712  0.36907246  0.50876033     0.32000
H265        H  0.06757520  0.32010805  0.07290488     0.37900
H266        H  0.39554298  0.43215593  0.45399042     0.32300
H267        H  0.44694654  0.34417910  0.05962048     0.31200
H268        H  0.38643472  0.28818596  0.09137832     0.32900
H269        H  0.18404962  0.25198700  0.10630738     0.31900
H270        H  0.37781028  0.44671677  0.02107558     0.35900
H271        H  0.26605955  0.46986542  0.07024855     0.28600
H272        H  0.27871714  0.24502921  0.48207407     0.32800
H273        H  0.12222142  0.24001419  0.06793301     0.35700
H274        H  0.43166458  0.37619845  0.03627035     0.28300
H275        H  0.21047075  0.48175205  0.05633005     0.41200
H276        H  0.13046847  0.45409801  0.46201238     0.31200
H277        H  0.23124208  0.45739304  0.44612431     0.38800
H278        H  0.24151176  0.27018578  0.10343877     0.30700
H279        H  0.04705022  0.35511346  0.47993680     0.30800
H280        H  0.24326891  0.26059082  0.45622191     0.31000
N281        N  0.00766447  0.13691022  0.23064847    -0.36600
N282        N  0.92318973  0.14311946  0.27006432    -0.57200
N283        N  0.00858376  0.14804000  0.31038624    -0.36600
N284        N  0.09338121  0.14269010  0.26893984    -0.57200
C285        C  0.96367270  0.12490584  0.21811157     0.27000
C286        C  0.05139903  0.12553082  0.21760848     0.27000
C287        C  0.96416040  0.14171107  0.32715039     0.27000
C288        C  0.05282817  0.14027481  0.32692715     0.27000
C289        C  0.89363332  0.14917663  0.24625879     0.35600
C290        C  0.89351060  0.15459172  0.29044456     0.35600
C291        C  0.12203213  0.15027301  0.24478446     0.35600
C292        C  0.12377774  0.15265090  0.28975284     0.35600
C293        C  0.97992347  0.10438616  0.19767761    -0.21900
C294        C  0.03533095  0.10478414  0.19740672    -0.21900
C295        C  0.98031636  0.12989582  0.35468328    -0.21900
C296        C  0.03614407  0.12903782  0.35457539    -0.21900
C297        C  0.84403251  0.16421409  0.25141641    -0.23000
C298        C  0.84404891  0.16787215  0.27973688    -0.22900
C299        C  0.17172036  0.16533543  0.25007953    -0.23000
C300        C  0.17319923  0.16636204  0.27896562    -0.22900
C301        C  0.91098192  0.13832886  0.22097645    -0.18300
C302        C  0.10346331  0.14028650  0.21921666    -0.18300
C303        C  0.10774362  0.14642406  0.31829507    -0.18300
C304        C  0.90981734  0.14981676  0.31876063    -0.18300
H305        H  0.95536885  0.09197193  0.18311830     0.14600
H306        H  0.06063063  0.09325427  0.18257603     0.14600
H307        H  0.95458266  0.12339378  0.37309352     0.14600
H308        H  0.06149210  0.12178905  0.37299316     0.14600
H309        H  0.81115120  0.17100547  0.23659599     0.12900
H310        H  0.81117396  0.17817556  0.29124805     0.12900
H311        H  0.20383355  0.17352060  0.23501902     0.12900
H312        H  0.20660949  0.17587014  0.29065797     0.12900
H313        H  0.00772347  0.15779524  0.24275506     0.26200
H314        H  0.00891388  0.16140545  0.28978915     0.26200
N315        N  0.97112561  0.34996342  0.23781616    -0.36600
N316        N  0.89588364  0.36798287  0.27898112    -0.57200
N317        N  0.98683238  0.36161406  0.31669385    -0.36600
N318        N  0.06215557  0.34365323  0.27654677    -0.57200
C319        C  0.93060224  0.36678449  0.22213382     0.27000
C320        C  0.01570679  0.35253503  0.22121632     0.27000
C321        C  0.94813085  0.37685726  0.33084063     0.27000
C322        C  0.03434927  0.36619083  0.32978761     0.27000
C323        C  0.86028816  0.36270382  0.25874035     0.35600
C324        C  0.86834038  0.36372693  0.30344186     0.35600
C325        C  0.08438395  0.32809685  0.25571739     0.35600
C326        C  0.09307344  0.33488430  0.29971618     0.35600
C327        C  0.95026153  0.38081681  0.19557138    -0.21900
C328        C  0.00409229  0.37214095  0.19513737    -0.21900
C329        C  0.97126506  0.39231964  0.35262675    -0.21900
C330        C  0.02584714  0.38570260  0.35192109    -0.21900
C331        C  0.80872464  0.35641589  0.27007993    -0.23000
C332        C  0.81415122  0.35613758  0.29888681    -0.22900
C333        C  0.13092312  0.30964928  0.26541256    -0.23000
C334        C  0.13642250  0.31394631  0.29358548    -0.22900
C335        C  0.87538793  0.36577181  0.23031056    -0.18300
C336        C  0.06439295  0.33372566  0.22785124    -0.18300
C337        C  0.08251706  0.34762431  0.32544749    -0.18300
C338        C  0.89261181  0.36894214  0.32900864    -0.18300
H339        H  0.92846681  0.39499485  0.17783998     0.14600
H340        H  0.03115487  0.37845278  0.17724330     0.14600
H341        H  0.95039612  0.40448433  0.36874845     0.14600
H342        H  0.05513047  0.39229366  0.36726855     0.14600
H343        H  0.77157559  0.35223848  0.25890875     0.12900
H344        H  0.78197452  0.35188879  0.31446343     0.12900
H345        H  0.15819758  0.29515350  0.25341039     0.12900
H346        H  0.16867918  0.30336911  0.30773995     0.12900
H347        H  0.96674977  0.33309687  0.25698806     0.26200
H348        H  0.97937110  0.34287956  0.30313299     0.26200
N349        N  0.48873038  0.40336334  0.31007209    -0.36600
N350        N  0.40497521  0.41867318  0.26729406    -0.57200
N351        N  0.49386185  0.42539462  0.22791816    -0.36600
N352        N  0.57671449  0.41049199  0.26989779    -0.57200
C353        C  0.44491114  0.41016419  0.32534361     0.27000
C354        C  0.53261798  0.40534664  0.32666480     0.27000
C355        C  0.45099561  0.43659883  0.21135306     0.27000
C356        C  0.53933358  0.43334233  0.21239851     0.27000
C357        C  0.37501374  0.40382702  0.28948043     0.35600
C358        C  0.37804129  0.41247927  0.24396769     0.35600
C359        C  0.60327117  0.39392603  0.29259808     0.35600
C360        C  0.60642496  0.40549807  0.24723685     0.35600
C361        C  0.46127079  0.41701216  0.35186709    -0.21900
C362        C  0.51668953  0.41409502  0.35265379    -0.21900
C363        C  0.46952734  0.45287054  0.18522783    -0.21900
C364        C  0.52508384  0.45049453  0.18580308    -0.21900
C365        C  0.32747056  0.38935080  0.28041676    -0.23000
C366        C  0.32967618  0.39448536  0.25128634    -0.22900
C367        C  0.65134689  0.37921162  0.28458460    -0.23000
C368        C  0.65323852  0.38649736  0.25550623    -0.22900
C369        C  0.39077979  0.40420814  0.31757753    -0.18300
C370        C  0.58537002  0.39457193  0.32028437    -0.18300
C371        C  0.59114400  0.41851061  0.21942179    -0.18300
C372        C  0.39741708  0.42362700  0.21642483    -0.18300
H373        H  0.43596947  0.42185255  0.36941576     0.14600
H374        H  0.54201861  0.41645688  0.37081017     0.14600
H375        H  0.44532581  0.46197658  0.16669161     0.14600
H376        H  0.55139973  0.45739061  0.16771892     0.14600
H377        H  0.29568355  0.37563296  0.29340567     0.12900
H378        H  0.29946468  0.38597031  0.23718195     0.12900
H379        H  0.68158369  0.36490591  0.29822151     0.12900
H380        H  0.68506771  0.37878491  0.24200099     0.12900
H381        H  0.48783283  0.39172104  0.29165344     0.26200
H382        H  0.49155548  0.40636707  0.24585738     0.26200
N383        N  0.49290252  0.10961753  0.23336346    -0.36600
N384        N  0.41298327  0.10291140  0.27751177    -0.57200
N385        N  0.50246384  0.10686753  0.31476442    -0.36600
N386        N  0.58217114  0.11392941  0.27038220    -0.57200
C387        C  0.44667061  0.11959696  0.21930941     0.27000
C388        C  0.53451047  0.11995810  0.21566917     0.27000
C389        C  0.45882748  0.11121781  0.33101157     0.27000
C390        C  0.54546639  0.12096198  0.32689326     0.27000
C391        C  0.38148444  0.09510295  0.25629212     0.35600
C392        C  0.38766182  0.08978810  0.30172687     0.35600
C393        C  0.61016942  0.10528167  0.24815287     0.35600
C394        C  0.61597752  0.10944735  0.29269651     0.35600
C395        C  0.45939116  0.13793426  0.19273220    -0.21900
C396        C  0.51511936  0.13819932  0.19048389    -0.21900
C397        C  0.47388257  0.12881119  0.35334146    -0.21900
C398        C  0.52843296  0.13509635  0.35071183    -0.21900
C399        C  0.33467632  0.07746177  0.26695894    -0.23000
C400        C  0.33883627  0.07382583  0.29609448    -0.22900
C401        C  0.66297129  0.09595094  0.25614948    -0.23000
C402        C  0.66682616  0.09905439  0.28455441    -0.22900
C403        C  0.39485061  0.10574991  0.22776334    -0.18300
C404        C  0.58828553  0.10849415  0.22069293    -0.18300
C405        C  0.60028084  0.11584765  0.31977113    -0.18300
C406        C  0.40751794  0.09548239  0.32818093    -0.18300
H407        H  0.43162007  0.14803482  0.17595584     0.14600
H408        H  0.53852446  0.14860416  0.17190456     0.14600
H409        H  0.44873032  0.13538503  0.37040466     0.14600
H410        H  0.55271173  0.14716495  0.36565813     0.14600
H411        H  0.30126583  0.06834408  0.25507202     0.12900
H412        H  0.30914287  0.06164477  0.31127043     0.12900
H413        H  0.69529586  0.08828478  0.24290368     0.12900
H414        H  0.70247398  0.09391060  0.29770204     0.12900
H415        H  0.49578176  0.09085574  0.25156578     0.26200
H416        H  0.50421295  0.08992499  0.29940113     0.26200
C417        C  0.31865754  0.42771435  0.14826130    -0.05800
C418        C  0.34310460  0.39941498  0.13629138     0.00100
C419        C  0.38100743  0.37696641  0.15305341    -0.08400
C420        C  0.39343624  0.38459424  0.18018466    -0.05800
C421        C  0.36903252  0.41277099  0.19164504     0.00100
C422        C  0.32811027  0.43322716  0.17628523    -0.08300
C423        C  0.29098049  0.45917224  0.18867259     0.62000
H424        H  0.28930424  0.44490649  0.13611311     0.12700
H425        H  0.42430530  0.36922669  0.19271321     0.12700
C426        C  0.40858550  0.34488365  0.14322953     0.62300
F427        F  0.30461874  0.46363986  0.21592883    -0.22900
F428        F  0.23812872  0.44656144  0.18912064    -0.20200
F429        F  0.29204966  0.49215317  0.17193863    -0.19900
F430        F  0.43854581  0.35582645  0.11903341    -0.20000
F431        F  0.36971724  0.32001027  0.13815730    -0.20300
F432        F  0.44404414  0.32783539  0.16328267    -0.22900
C433        C  0.31287511  0.41387767  0.38244448    -0.05800
C434        C  0.31815673  0.37881731  0.39732445     0.00100
C435        C  0.33328084  0.35045536  0.38203791    -0.08400
C436        C  0.35076467  0.35955792  0.35396356    -0.05800
C437        C  0.35185657  0.39514390  0.34082782     0.00100
C438        C  0.32911218  0.42239237  0.35420878    -0.08300
C439        C  0.32494134  0.46053235  0.33890511     0.62000
H440        H  0.29808496  0.43522433  0.39328892     0.12700
H441        H  0.36797250  0.33934280  0.34264612     0.12700
C442        C  0.33285276  0.31099223  0.39474417     0.62300
F443        F  0.29964107  0.46028014  0.31308218    -0.22900
F444        F  0.37619071  0.47544916  0.33435238    -0.20200
F445        F  0.29494140  0.48211014  0.35418177    -0.19900
F446        F  0.28135960  0.30120512  0.40471476    -0.20000
F447        F  0.37031117  0.30477127  0.41646236    -0.20300
F448        F  0.34614005  0.28890883  0.37500749    -0.22900
C449        C  0.14435375  0.34533899  0.19732357    -0.05800
C450        C  0.09697607  0.32533805  0.20359385     0.00100
C451        C  0.07298954  0.30756430  0.18243880    -0.08400
C452        C  0.09130687  0.31589872  0.15448470    -0.05800
C453        C  0.13532621  0.33929325  0.14751097     0.00100
C454        C  0.16505530  0.35143194  0.16971819    -0.08300
C455        C  0.21891791  0.36993620  0.16450133     0.62000
H456        H  0.16285776  0.35833810  0.21376424     0.12700
H457        H  0.07075273  0.30411675  0.13795291     0.12700
C458        C  0.02673243  0.28091602  0.18823866     0.62300
F459        F  0.21079750  0.40285978  0.14834512    -0.22900
F460        F  0.25256991  0.34890680  0.15063814    -0.20200
F461        F  0.24417028  0.37509227  0.18947200    -0.19900
F462        F  0.98014815  0.29491218  0.17479838    -0.20000
F463        F  0.01620322  0.27187381  0.21680429    -0.20300
F464        F  0.04036321  0.24995562  0.17764451    -0.22900
C465        C  0.10093175  0.31317393  0.37186766    -0.05800
C466        C  0.11877572  0.33995256  0.35028438     0.00100
C467        C  0.15694078  0.36583409  0.35645065    -0.08400
C468        C  0.17346732  0.36551254  0.38466118    -0.05800
C469        C  0.15177837  0.34064718  0.40652140     0.00100
C470        C  0.11627614  0.31341342  0.40015023    -0.08300
C471        C  0.09125663  0.28677472  0.42344330     0.62000
H472        H  0.07033574  0.29434183  0.36678057     0.12700
H473        H  0.20110455  0.38587169  0.39009076     0.12700
C474        C  0.17611910  0.39526662  0.33355644     0.62300
F475        F  0.05977098  0.26134602  0.41272071    -0.22900
F476        F  0.05861751  0.30485734  0.44018627    -0.20200
F477        F  0.13162876  0.26908920  0.43997634    -0.19900
F478        F  0.13306050  0.41699185  0.32370757    -0.20000
F479        F  0.19794219  0.38022212  0.31138557    -0.20300
F480        F  0.21524677  0.41661544  0.34344399    -0.22900
C481        C  0.61211875  0.35181955  0.36131035    -0.05800
C482        C  0.62213847  0.38469480  0.34430696     0.00100
C483        C  0.65429485  0.41117632  0.35431880    -0.08400
C484        C  0.67236836  0.40480056  0.38231627    -0.05800
C485        C  0.65743165  0.37348184  0.40048129     0.00100
C486        C  0.62865656  0.34576011  0.38966620    -0.08300
C487        C  0.61212067  0.31118028  0.40817299     0.62000
H488        H  0.58677683  0.33232409  0.35284987     0.12700
H489        H  0.69534259  0.42539870  0.39079001     0.12700
C490        C  0.66439587  0.44728331  0.33632900     0.62300
F491        F  0.58027224  0.28952259  0.39369317    -0.22900
F492        F  0.58263414  0.31880214  0.43122070    -0.20200
F493        F  0.65799963  0.29201996  0.41741775    -0.19900
F494        F  0.61584971  0.46541730  0.33121072    -0.20000
F495        F  0.68741503  0.44243377  0.31079939    -0.20300
F496        F  0.69912257  0.46858424  0.34945226    -0.22900
C497        C  0.66687382  0.43223734  0.15134661    -0.05800
C498        C  0.64863627  0.40226713  0.13935389     0.00100
C499        C  0.62182164  0.37367902  0.15720466    -0.08400
C500        C  0.60838126  0.37885903  0.18475787    -0.05800
C501        C  0.62406153  0.40970092  0.19564519     0.00100
C502        C  0.65813154  0.43509853  0.17986201    -0.08300
C503        C  0.68766396  0.46338846  0.19361298     0.62000
H504        H  0.68895225  0.45337561  0.13843244     0.12700
H505        H  0.58287458  0.35960466  0.19780388     0.12700
C506        C  0.60715801  0.33770809  0.14821607     0.62300
F507        F  0.72413459  0.44660827  0.21311706    -0.22900
F508        F  0.65176938  0.48273698  0.20743250    -0.20200
F509        F  0.71621101  0.48709084  0.17407799    -0.19900
F510        F  0.65336970  0.32220500  0.13887846    -0.20000
F511        F  0.56820705  0.34227887  0.12717375    -0.20300
F512        F  0.58601777  0.31382856  0.17034307    -0.22900
C513        C  0.81636334  0.37844156  0.39557247    -0.05800
C514        C  0.83784797  0.34908879  0.41346590     0.00100
C515        C  0.87457811  0.32580513  0.40319230    -0.08400
C516        C  0.88374462  0.33003667  0.37402380    -0.05800
C517        C  0.86411541  0.36025952  0.35612516     0.00100
C518        C  0.83225565  0.38591314  0.36725705    -0.08300
C519        C  0.82002208  0.42227092  0.35035470     0.62000
H520        H  0.79047809  0.39704555  0.40459630     0.12700
H521        H  0.91211179  0.31254225  0.36542752     0.12700
C522        C  0.90810797  0.30000132  0.42339312     0.62300
F523        F  0.79444609  0.44461376  0.36673218    -0.22900
F524        F  0.78698912  0.41812409  0.32773983    -0.20200
F525        F  0.86770480  0.43907476  0.34035116    -0.19900
F526        F  0.87451659  0.27487819  0.43868175    -0.20000
F527        F  0.93537521  0.31878166  0.44192286    -0.20300
F528        F  0.94672041  0.28259384  0.40941201    -0.22900
C529        C  0.82914135  0.40543163  0.19331279    -0.05800
C530        C  0.83453985  0.37054497  0.20758551     0.00100
C531        C  0.81783225  0.34110690  0.19450867    -0.08400
C532        C  0.80027477  0.34769415  0.16644708    -0.05800
C533        C  0.80616507  0.38177024  0.15011534     0.00100
C534        C  0.82049537  0.41154390  0.16395970    -0.08300
C535        C  0.83346847  0.44853414  0.14814679     0.62000
H536        H  0.84205501  0.42723179  0.20429472     0.12700
H537        H  0.78687065  0.32524463  0.15639304     0.12700
C538        C  0.82340880  0.30269775  0.20907277     0.62300
F539        F  0.85131003  0.47183140  0.16608819    -0.22900
F540        F  0.78773019  0.46325295  0.13457284    -0.20200
F541        F  0.87437455  0.44606691  0.12865076    -0.19900
F542        F  0.79609494  0.29828906  0.23456376    -0.20000
F543        F  0.87771930  0.29461404  0.21384947    -0.20300
F544        F  0.80194481  0.27839371  0.19287500    -0.22900
C545        C  0.64519715  0.07435139  0.15532502    -0.05800
C546        C  0.68136982  0.10208347  0.14560568     0.00100
C547        C  0.68997217  0.13023348  0.16209641    -0.08400
C548        C  0.66201107  0.12936858  0.18765776    -0.05800
C549        C  0.62279068  0.10328913  0.19617146     0.00100
C550        C  0.61339773  0.07545032  0.17961695    -0.08300
C551        C  0.56601077  0.04961769  0.18520946     0.62000
H552        H  0.63738195  0.05406681  0.14187600     0.12700
H553        H  0.66774060  0.15100696  0.20010813     0.12700
C554        C  0.72430278  0.16335186  0.15330497     0.62300
F555        F  0.58203782  0.51880771  0.17172708    -0.22900
F556        F  0.52497848  0.55964470  0.18364129    -0.20200
F557        F  0.58137508  0.53100811  0.21638129    -0.19900
F558        F  0.69063861  0.19283145  0.14785143    -0.20000
F559        F  0.75495809  0.16125263  0.12968201    -0.20300
F560        F  0.75921814  0.16846564  0.17505715    -0.22900
C561        C  0.65846457  0.09264601  0.39149848    -0.05800
C562        C  0.66553723  0.12740563  0.39861185     0.00100
C563        C  0.66429093  0.15734646  0.37638638    -0.08400
C564        C  0.65478842  0.15077555  0.34855289    -0.05800
C565        C  0.64004222  0.11674342  0.34280692     0.00100
C566        C  0.64431851  0.08691275  0.36415351    -0.08300
C567        C  0.63135136  0.04932756  0.35816850     0.62000
H568        H  0.66074021  0.06970329  0.40788481     0.12700
H569        H  0.65065072  0.17291319  0.33154225     0.12700
C570        C  0.66941827  0.19628901  0.38123509     0.62300
F571        F  0.57732434  0.04675731  0.35068063    -0.22900
F572        F  0.64092756  0.02366535  0.38141290    -0.20200
F573        F  0.66377595  0.04174074  0.33623471    -0.19900
F574        F  0.71994441  0.20210714  0.39198000    -0.20000
F575        F  0.62947198  0.20449939  0.39960371    -0.20300
F576        F  0.66386816  0.22007909  0.35648342    -0.22900
C577        C  0.85561923  0.10948996  0.18903120    -0.05800
C578        C  0.87639268  0.14162806  0.19568681     0.00100
C579        C  0.88405988  0.17103824  0.17423282    -0.08400
C580        C  0.87611176  0.16595658  0.14607466    -0.05800
C581        C  0.86425691  0.13184940  0.13870900     0.00100
C582        C  0.85497098  0.10259722  0.16095699    -0.08300
C583        C  0.85124767  0.06346496  0.15643547     0.62000
H584        H  0.84982255  0.08781763  0.20630916     0.12700
H585        H  0.88133075  0.18858064  0.12958936     0.12700
C586        C  0.90222127  0.20725695  0.18124921     0.62300
F587        F  0.85800223  0.04034522  0.18147324    -0.22900
F588        F  0.89192048  0.05569970  0.13830087    -0.20200
F589        F  0.80105674  0.05630684  0.14571841    -0.19900
F590        F  0.95343717  0.20461025  0.19319400    -0.20000
F591        F  0.86619821  0.21863148  0.20021026    -0.20300
F592        F  0.90404695  0.23303428  0.15749659    -0.22900
C593        C  0.81413798  0.12950055  0.38050407    -0.05800
C594        C  0.82504203  0.15934624  0.39416879     0.00100
C595        C  0.85398344  0.18893223  0.37979184    -0.08400
C596        C  0.87583035  0.18621799  0.35314671    -0.05800
C597        C  0.87029649  0.15483686  0.34106705     0.00100
C598        C  0.83647614  0.12670484  0.35388643    -0.08300
C599        C  0.82629376  0.09344601  0.34013097     0.62000
H600        H  0.79054345  0.10751477  0.39160349     0.12700
H601        H  0.90148618  0.20737697  0.34244344     0.12700
C602        C  0.86593824  0.22191545  0.39328356     0.62300
F603        F  0.87493278  0.07654016  0.33627376    -0.22900
F604        F  0.80166312  0.10303562  0.31420392    -0.20200
F605        F  0.79252502  0.06920255  0.35638811    -0.19900
F606        F  0.89357847  0.21226570  0.41841014    -0.20000
F607        F  0.81795233  0.23879936  0.39833797    -0.20300
F608        F  0.89764332  0.24605314  0.37581680    -0.22900
C609        C  0.33822262  0.11155439  0.39383753    -0.05800
C610        C  0.36425018  0.08533239  0.41326281     0.00100
C611        C  0.39224716  0.05696063  0.40302406    -0.08400
C612        C  0.39622081  0.05756321  0.37358097    -0.05800
C613        C  0.37598119  0.08630942  0.35452745     0.00100
C614        C  0.34394917  0.11274367  0.36453062    -0.08300
C615        C  0.32019105  0.14367500  0.34431714     0.62000
H616        H  0.31549876  0.13242926  0.40180681     0.12700
H617        H  0.42117214  0.03798391  0.36513069     0.12700
C618        C  0.42253552  0.02833865  0.42252904     0.62300
F619        F  0.29046088  0.16669126  0.35835884    -0.22900
F620        F  0.28619281  0.13037475  0.32525586    -0.20200
F621        F  0.36121604  0.16350123  0.32963370    -0.19900
F622        F  0.38659902  0.00818812  0.44048827    -0.20000
F623        F  0.46012942  0.04440119  0.43824000    -0.20300
F624        F  0.45012396  0.00507378  0.40764190    -0.22900
C625        C  0.34010710  0.07012686  0.16418073    -0.05800
C626        C  0.31410630  0.10073360  0.15042283     0.00100
C627        C  0.30864652  0.13142561  0.16438039    -0.08400
C628        C  0.32853931  0.12977179  0.19196954    -0.05800
C629        C  0.35694784  0.09988114  0.20501426     0.00100
C630        C  0.36203907  0.06915437  0.19141414    -0.08300
C631        C  0.39188559  0.03598326  0.20534858     0.62000
H632        H  0.34669767  0.04803572  0.15246901     0.12700
H633        H  0.32691150  0.15351283  0.20236592     0.12700
C634        C  0.28658176  0.16753218  0.15098313     0.62300
F635        F  0.39586604  0.01053729  0.18741048    -0.22900
F636        F  0.36425939  0.02118939  0.22939141    -0.20200
F637        F  0.44396756  0.04424485  0.21296173    -0.19900
F638        F  0.26473112  0.16724904  0.12445625    -0.20000
F639        F  0.32824110  0.19255444  0.14881328    -0.20300
F640        F  0.24648111  0.17846414  0.16807579    -0.22900
C641        C  0.19280797  0.11419742  0.38205049    -0.05800
C642        C  0.19236725  0.14518136  0.39528047     0.00100
C643        C  0.17447857  0.17807819  0.38012695    -0.08400
C644        C  0.15357425  0.17829665  0.35278577    -0.05800
C645        C  0.14860329  0.14663187  0.34091086     0.00100
C646        C  0.17059753  0.11427624  0.35495975    -0.08300
C647        C  0.16671516  0.07965966  0.34220509     0.62000
H648        H  0.20774664  0.08943449  0.39382068     0.12700
H649        H  0.13623605  0.20256198  0.34141533     0.12700
C650        C  0.17299083  0.21203647  0.39356352     0.62300
F651        F  0.19425931  0.05189882  0.35825671    -0.22900
F652        F  0.18897730  0.08462122  0.31535342    -0.20200
F653        F  0.11286976  0.06949807  0.34049789    -0.19900
F654        F  0.22519319  0.22242203  0.39935992    -0.20000
F655        F  0.14327776  0.20595356  0.41834561    -0.20300
F656        F  0.14910053  0.23996275  0.37594899    -0.22900
C657        C  0.17097649  0.11814843  0.15421016    -0.05800
C658        C  0.14463751  0.14264141  0.13354531     0.00100
C659        C  0.11158942  0.16963491  0.14243872    -0.08400
C660        C  0.10986252  0.17261851  0.17140976    -0.05800
C661        C  0.13338774  0.14681007  0.19202242     0.00100
C662        C  0.16509395  0.11930048  0.18331003    -0.08300
C663        C  0.18912491  0.08991377  0.20477286     0.62000
H664        H  0.19479504  0.09697364  0.14743660     0.12700
H665        H  0.08244499  0.19186998  0.17844923     0.12700
C666        C  0.07142733  0.19240506  0.12359418     0.62300
F667        F  0.21889875  0.06563253  0.19197275    -0.22900
F668        F  0.14814915  0.07117861  0.22036005    -0.20200
F669        F  0.22309454  0.10498821  0.22287109    -0.19900
F670        F  0.07108697  0.18527860  0.09609447    -0.20000
F671        F  0.08329895  0.22830638  0.12351317    -0.20300
F672        F  0.01947508  0.18568751  0.13432280    -0.22900
C673        C  0.54829748  0.27215239  0.50344704     0.02300
C674        C  0.55277322  0.23376359  0.99853410     0.02200
C675        C  0.50396708  0.21372081  0.99684245    -0.18300
C676        C  0.45115367  0.22774439  0.00053776     0.02300
C677        C  0.44687801  0.26688734  0.50419418     0.02200
C678        C  0.49564034  0.28668447  0.50594756    -0.18300
H679        H  0.49252393  0.31412646  0.51015279     0.04300
H680        H  0.50740545  0.18550720  0.99483693     0.04300
C681        C  0.94519494  0.47919364  0.54146681     0.02300
C682        C  0.94931562  0.01663140  0.54369061     0.02200
C683        C  0.00210762  0.03152035  0.54625774    -0.18300
C684        C  0.05128267  0.01204630  0.54418389     0.02300
C685        C  0.04709660  0.47389814  0.54119084     0.02200
C686        C  0.99398145  0.45905641  0.54033234    -0.18300
H687        H  0.99053249  0.43096110  0.53790692     0.04300
H688        H  0.00508102  0.05990027  0.54779602     0.04300
Zr689      Zr  0.21201762  0.07944345  0.56955654     2.19900
O690        O  0.21028910  0.02361980  0.60239900    -0.51300
O691        O  0.15051637  0.11046587  0.59725172    -0.74500
O692        O  0.26307017  0.08428646  0.61298694    -0.81300
O693        O  0.11264536  0.04879128  0.51476632    -0.83100
O694        O  0.32843708  0.12730281  0.60317276    -0.78700
O695        O  0.13081334  0.04111096  0.56194604    -0.90300
O696        O  0.17259309  0.16906769  0.58649206    -0.76300
O697        O  0.24744360  0.13882102  0.56739303    -0.85800
O698        O  0.15747093  0.11704148  0.53666177    -0.85500
O699        O  0.30704624  0.07931909  0.55605600    -0.72200
O700        O  0.22655814  0.05776917  0.52559316    -0.84400
Zr701      Zr  0.30232127  0.15113357  0.97654462     2.26400
Zr702      Zr  0.34043407  0.13977160  0.55269675     2.06300
Zr703      Zr  0.17380236  0.09177830  0.99254592     2.10000
Zr704      Zr  0.19241210  0.17611033  0.53549632     1.78800
O705        O  0.15724997  0.04388767  0.96434444    -0.93200
O706        O  0.23213893  0.23015013  0.54860600    -0.41000
O707        O  0.20748451  0.15187466  0.99026920    -0.77600
O708        O  0.28587664  0.17838567  0.51986719    -0.96300
O709        O  0.35623984  0.11852464  0.50884230    -0.89600
O710        O  0.26631579  0.09193766  0.97885692    -0.92400
C711        C  0.15562158  0.14201483  0.60394832     1.01300
C712        C  0.10282377  0.03424194  0.54024643     1.14200
C713        C  0.30001971  0.10546943  0.62029851     1.05000
O714        O  0.38184262  0.18028883  0.58200058    -0.94600
O715        O  0.39890828  0.18803541  0.52940246    -0.90300
O716        O  0.37701491  0.19383868  0.98388491    -0.83500
C717        C  0.40512251  0.20117065  0.00518516     1.11700
O718        O  0.35459387  0.00904547  0.54420202    -0.96600
Zr719      Zr  0.32172536  0.05496321  0.01178011     1.88900
O720        O  0.36566707  0.11679154  0.95165463    -0.73200
O721        O  0.42218103  0.10344664  0.56059292    -0.52500
O722        O  0.41880159  0.05197861  0.50984766    -0.97200
O723        O  0.27632737  0.00164324  0.00105196    -0.54400
O724        O  0.34727429  0.05779351  0.96229933    -0.73700
C725        C  0.36091983  0.08529073  0.94465037     0.98600
O726        O  0.31591077  0.19865191  0.93664961    -0.62600
O727        O  0.08671453  0.12181098  0.98336212    -0.57400
O728        O  0.24592715  0.15606203  0.93449740    -0.94000
O729        O  0.17805624  0.11445482  0.94240168    -0.92500
O730        O  0.09489109  0.18601402  0.53910954    -0.92800
O731        O  0.15354957  0.22348382  0.50125990    -0.91600
C732        C  0.20595241  0.13810580  0.92637344     1.17500
H733        H  0.11955450  0.11543716  0.54198691     0.33400
H734        H  0.29968473  0.20248732  0.51828972     0.44200
H735        H  0.26404988  0.08433294  0.96050515     0.37800
H736        H  0.32689192  0.06430438  0.57061305     0.34300
H737        H  0.26688710  0.22281323  0.55813088     0.26000
H738        H  0.45243475  0.12045159  0.55511362     0.32000
H739        H  0.42258473  0.02479775  0.99689610     0.37900
H740        H  0.07839254  0.17596744  0.52304934     0.32300
H741        H  0.09296510  0.14025820  0.96671023     0.31200
H742        H  0.11941917  0.04756794  0.95749097     0.32900
H743        H  0.24049077  0.00970215  0.99322754     0.31900
H744        H  0.14395181  0.21196108  0.48456369     0.35900
H745        H  0.32025524  0.22156528  0.94419691     0.28600
H746        H  0.19418915  0.02987339  0.62002934     0.32800
H747        H  0.38082578  0.01919017  0.55665695     0.35700
H748        H  0.06162241  0.10936320  0.47657403     0.28300
H749        H  0.35207466  0.19394708  0.92887923     0.41200
H750        H  0.35355451  0.19841841  0.58388103     0.31200
H751        H  0.24239182  0.24418352  0.53034944     0.38800
H752        H  0.26828064  0.98745580  0.01959877     0.30700
H753        H  0.42507049  0.09773359  0.58141361     0.30800
H754        H  0.24882037  0.01810128  0.60715462     0.31000
Zr755      Zr  0.72596082  0.17759535  0.97571698     2.17500
O756        O  0.73193936  0.23834636  0.95055151    -0.51300
O757        O  0.67501355  0.15845538  0.93755814    -0.74500
O758        O  0.78562815  0.17782305  0.93457303    -0.81300
O759        O  0.60986682  0.19658001  0.52570573    -0.83100
O760        O  0.83097753  0.12481461  0.94063105    -0.78700
O761        O  0.64047416  0.21246888  0.98252843    -0.90300
O762        O  0.68254248  0.09844388  0.94597638    -0.76300
O763        O  0.75247517  0.11756330  0.97255493    -0.85800
O764        O  0.66336481  0.14167987  0.50139442    -0.85500
O765        O  0.81847528  0.16841864  0.99318842    -0.72200
O766        O  0.74033049  0.19291872  0.52244030    -0.84400
Zr767      Zr  0.78846532  0.08390209  0.56428720     2.26400
Zr768      Zr  0.84188051  0.10686638  0.99092371     2.06300
Zr769      Zr  0.67479614  0.15382020  0.54844080     2.10000
Zr770      Zr  0.68975214  0.08218061  0.49725168     1.78800
O771        O  0.66172165  0.20490448  0.57365520    -0.93200
O772        O  0.71884110  0.02787992  0.97602076    -0.41000
O773        O  0.69727639  0.09238154  0.54568321    -0.77600
O774        O  0.77909543  0.06977651  0.51695476    -0.96300
O775        O  0.85477961  0.12044461  0.53749592    -0.89600
O776        O  0.76498591  0.14460503  0.56513870    -0.92400
C777        C  0.67504569  0.12788587  0.92911491     1.01300
C778        C  0.60500449  0.21277044  0.00273850     1.14200
C779        C  0.81319156  0.15306016  0.92522236     1.05000
O780        O  0.87476911  0.06285116  0.96231615    -0.94600
O781        O  0.90046132  0.06167239  0.51423217    -0.90300
O782        O  0.86702327  0.04415394  0.55845815    -0.83500
C783        C  0.90200966  0.04199561  0.53857189     1.11700
O784        O  0.87878592  0.23547970  0.51953852    -0.96600
Zr785      Zr  0.83193401  0.18077396  0.54006042     1.88900
O786        O  0.85063924  0.10279938  0.59823277    -0.73200
O787        O  0.92623460  0.14105063  0.98311039    -0.52500
O788        O  0.92994686  0.17228244  0.53799585    -0.97200
O789        O  0.80944774  0.23072166  0.56452193    -0.54400
O790        O  0.85551270  0.16313539  0.58974946    -0.73700
C791        C  0.85910128  0.13314686  0.60630754     0.98600
O792        O  0.77385205  0.02666208  0.59423996    -0.62600
O793        O  0.58777159  0.12420991  0.56003941    -0.57400
O794        O  0.73427139  0.08861265  0.60724072    -0.94000
O795        O  0.67278045  0.13388384  0.59842161    -0.92500
O796        O  0.59288091  0.08135138  0.48670527    -0.92800
O797        O  0.63544262  0.03299942  0.52145826    -0.91600
C798        C  0.69810389  0.10991254  0.61504350     1.17500
H799        H  0.62526170  0.14294352  0.99458902     0.33400
H800        H  0.78915175  0.04514301  0.51646953     0.44200
H801        H  0.76463228  0.15052101  0.58387375     0.37800
H802        H  0.84263107  0.18411760  0.98118428     0.34300
H803        H  0.70086155  0.03117460  0.95731957     0.26000
H804        H  0.95494297  0.12432262  0.99123313     0.32000
H805        H  0.94361820  0.17610945  0.55681478     0.37900
H806        H  0.58781384  0.06593700  0.97038996     0.32300
H807        H  0.56443935  0.14298788  0.56620682     0.31200
H808        H  0.62394157  0.20249177  0.58086738     0.32900
H809        H  0.83965960  0.23216571  0.57800282     0.31900
H810        H  0.62747790  0.03979365  0.54027745     0.35900
H811        H  0.73453070  0.02142554  0.59311821     0.28600
H812        H  0.71216346  0.23715478  0.93272999     0.32800
H813        H  0.88939944  0.23174893  0.50021334     0.35700
H814        H  0.57243325  0.12017806  0.54160335     0.28300
H815        H  0.79260325  0.00815437  0.58517441     0.41200
H816        H  0.85384316  0.04068422  0.96876853     0.31200
H817        H  0.75763872  0.03259446  0.97145544     0.38800
H818        H  0.77839978  0.22122212  0.57653100     0.30700
H819        H  0.93226975  0.14371501  0.96243550     0.30800
H820        H  0.77045350  0.24192866  0.94483474     0.31000
Zr821      Zr  0.75917658  0.43018656  0.55667530     2.17500
O822        O  0.72904894  0.49181244  0.54959122    -0.51300
O823        O  0.79246950  0.41746298  0.60419128    -0.74500
O824        O  0.69778156  0.42838920  0.59686310    -0.81300
O825        O  0.89455593  0.44036966  0.51697840    -0.83100
O826        O  0.63997566  0.38149431  0.59562333    -0.78700
O827        O  0.84947550  0.46255670  0.55216743    -0.90300
O828        O  0.80146027  0.35729301  0.60890745    -0.76300
O829        O  0.72694399  0.37110941  0.57268107    -0.85800
O830        O  0.82787941  0.38900507  0.54808897    -0.85500
O831        O  0.67293520  0.42053374  0.53428275    -0.72200
O832        O  0.76549355  0.43958937  0.50638568    -0.84400
Zr833      Zr  0.72386028  0.32709830  0.99156642     2.26400
Zr834      Zr  0.64331820  0.36007998  0.55030083     2.06300
Zr835      Zr  0.83415360  0.39801534  0.99666821     2.10000
Zr836      Zr  0.79540041  0.33067223  0.56547240     1.78800
O837        O  0.86135424  0.44562721  0.95922586    -0.93200
O838        O  0.74876502  0.27942377  0.59215932    -0.41000
O839        O  0.80814878  0.33817688  0.51525768    -0.77600
O840        O  0.71218597  0.31824252  0.54210319    -0.96300
O841        O  0.65213922  0.36752303  0.50061583    -0.89600
O842        O  0.75006442  0.38744528  0.97508560    -0.92400
C843        C  0.80029411  0.38699471  0.61915880     1.01300
C844        C  0.89229945  0.46038240  0.53648915     1.14200
C845        C  0.66200359  0.40566866  0.60826389     1.05000
O846        O  0.60331295  0.31250507  0.58396132    -0.94600
O847        O  0.59031176  0.31584830  0.52811630    -0.90300
O848        O  0.63975550  0.29133561  0.99509610    -0.83500
C849        C  0.59630746  0.29482844  0.50922327     1.11700
O850        O  0.63422298  0.48370187  0.48331423    -0.96600
Zr851      Zr  0.67759047  0.42422521  0.98500243     1.88900
O852        O  0.68639832  0.34255647  0.94457777    -0.73200
O853        O  0.55781770  0.39266432  0.54570758    -0.52500
O854        O  0.58169312  0.42248275  0.48353307    -0.97200
O855        O  0.70682536  0.46944922  0.94624034    -0.54400
O856        O  0.66168845  0.40109874  0.94101571    -0.73700
C857        C  0.66855403  0.37184169  0.93068051     0.98600
O858        O  0.75112077  0.26484329  0.99732968    -0.62600
O859        O  0.92433035  0.37140518  0.00141190    -0.57400
O860        O  0.78692950  0.32420805  0.95348306    -0.94000
O861        O  0.84737576  0.37024035  0.95477904    -0.92500
O862        O  0.86736881  0.30661570  0.59777603    -0.92800
O863        O  0.86986517  0.29720767  0.54841447    -0.91600
C864        C  0.82521907  0.34522322  0.94313477     1.17500
H865        H  0.86171835  0.39292031  0.55744086     0.33400
H866        H  0.69914319  0.29408340  0.54779220     0.44200
H867        H  0.75571874  0.39207907  0.95496948     0.37800
H868        H  0.64634097  0.43726407  0.53940459     0.34300
H869        H  0.77388208  0.27057192  0.60777642     0.26000
H870        H  0.53662998  0.38100328  0.53193315     0.32000
H871        H  0.57092577  0.39914099  0.97287311     0.37900
H872        H  0.89431492  0.32630473  0.59733599     0.32300
H873        H  0.91918393  0.34631201  0.99800051     0.31200
H874        H  0.83860971  0.44202148  0.94277287     0.32900
H875        H  0.67657379  0.47140593  0.93244829     0.31900
H876        H  0.89891731  0.31513551  0.54291808     0.35900
H877        H  0.78841540  0.26558093  0.98953861     0.28600
H878        H  0.69170695  0.49046337  0.55737736     0.32800
H879        H  0.61476910  0.48799934  0.46500607     0.35700
H880        H  0.93966497  0.37440950  0.51771293     0.28300
H881        H  0.75647696  0.25858598  0.01791849     0.41200
H882        H  0.56352888  0.31504075  0.58122407     0.31200
H883        H  0.71835122  0.29006947  0.60162632     0.38800
H884        H  0.73661733  0.45808863  0.93685278     0.30700
H885        H  0.53909707  0.38545728  0.56398596     0.30800
H886        H  0.72411458  0.49715386  0.52890306     0.31000
Zr887      Zr  0.26591122  0.31729266  0.98673690     2.17500
O888        O  0.24746888  0.25629702  0.97782556    -0.51300
O889        O  0.30274965  0.34197229  0.94092883    -0.74500
O890        O  0.20646005  0.31947570  0.94643371    -0.81300
O891        O  0.39483608  0.30371555  0.53063967    -0.83100
O892        O  0.14544555  0.36460798  0.94846929    -0.78700
O893        O  0.35438494  0.28447549  0.99232795    -0.90300
O894        O  0.30654813  0.40161636  0.94145364    -0.76300
O895        O  0.23187280  0.37654052  0.97460818    -0.85800
O896        O  0.33172846  0.35864202  0.50170623    -0.85500
O897        O  0.17696485  0.32461066  0.50750901    -0.72200
O898        O  0.26797005  0.30357489  0.53688341    -0.84400
Zr899      Zr  0.21544371  0.40803551  0.56132953     2.26400
Zr900      Zr  0.14489761  0.38248765  0.99585681     2.06300
Zr901      Zr  0.33387340  0.34395414  0.55183315     2.10000
Zr902      Zr  0.29660328  0.41564137  0.98909510     1.78800
O903        O  0.35218142  0.29127129  0.58624166    -0.93200
O904        O  0.24900415  0.46426623  0.96008511    -0.41000
O905        O  0.30277042  0.40449335  0.53837481    -0.77600
O906        O  0.21362282  0.42533203  0.51069663    -0.96300
O907        O  0.14846022  0.37023869  0.54542506    -0.89600
O908        O  0.24729795  0.34841116  0.57364441    -0.92400
C909        C  0.30920437  0.37416577  0.92850857     1.01300
C910        C  0.39378736  0.28308383  0.01043983     1.14200
C911        C  0.16889836  0.34074019  0.93589204     1.05000
O912        O  0.10323849  0.42733367  0.96070690    -0.94600
O913        O  0.09243047  0.43167321  0.51572164    -0.90300
O914        O  0.13335410  0.44599222  0.55526986    -0.83500
C915        C  0.09463768  0.44960112  0.53691043     1.11700
O916        O  0.13375665  0.25698789  0.54762583    -0.96600
Zr917      Zr  0.18032666  0.31060079  0.55778560     1.88900
O918        O  0.17044572  0.38092266  0.60562218    -0.73200
O919        O  0.06078219  0.35340614  0.49954874    -0.52500
O920        O  0.08172009  0.30494819  0.56195650    -0.97200
O921        O  0.22198649  0.26461993  0.59233439    -0.54400
O922        O  0.15499456  0.32189007  0.60380997    -0.73700
C923        C  0.15495276  0.34919839  0.61670960     0.98600
O924        O  0.22792067  0.46872519  0.57203440    -0.62600
O925        O  0.42435596  0.36989532  0.55392170    -0.57400
O926        O  0.28165818  0.40990773  0.59857327    -0.94000
O927        O  0.34873159  0.36974603  0.59511170    -0.92500
O928        O  0.39458803  0.41796133  0.47310575    -0.92800
O929        O  0.35837500  0.46656151  0.49661518    -0.91600
C930        C  0.32470251  0.39296947  0.60790986     1.17500
H931        H  0.36616846  0.35465740  0.99424209     0.33400
H932        H  0.20107647  0.44968722  0.50603704     0.44200
H933        H  0.25226000  0.34229106  0.59376046     0.37800
H934        H  0.15208306  0.30531893  0.00010862     0.34300
H935        H  0.27716437  0.47609196  0.94712344     0.26000
H936        H  0.03862472  0.35804218  0.01305544     0.32000
H937        H  0.06889191  0.32799671  0.56715372     0.37900
H938        H  0.40548011  0.40980304  0.96897534     0.32300
H939        H  0.44891954  0.34910730  0.55842934     0.31200
H940        H  0.39152155  0.29281356  0.59031947     0.32900
H941        H  0.19221446  0.25474467  0.60505707     0.31900
H942        H  0.38095880  0.45635827  0.51294129     0.35900
H943        H  0.26767562  0.47284849  0.57142962     0.28600
H944        H  0.28144788  0.24298590  0.98256152     0.32800
H945        H  0.13124534  0.24142834  0.56608969     0.35700
H946        H  0.43290273  0.37972524  0.53407212     0.28300
H947        H  0.21405935  0.48495911  0.55549733     0.41200
H948        H  0.12533122  0.44928495  0.96107234     0.31200
H949        H  0.22496903  0.45213895  0.94777236     0.38800
H950        H  0.24539554  0.27773874  0.60425273     0.30700
H951        H  0.04235897  0.35535429  0.98072768     0.30800
H952        H  0.24451213  0.25762459  0.95706094     0.31000
N953        N  0.01046202  0.13621644  0.73036324    -0.36600
N954        N  0.92359481  0.13930577  0.76998142    -0.57200
N955        N  0.00775083  0.14679990  0.81060034    -0.36600
N956        N  0.09415260  0.14345013  0.76944086    -0.57200
C957        C  0.96704640  0.12390070  0.71755188     0.27000
C958        C  0.05480546  0.12535993  0.71744458     0.27000
C959        C  0.96334780  0.14004231  0.82737073     0.27000
C960        C  0.05206783  0.14146430  0.82745411     0.27000
C961        C  0.89480253  0.14562291  0.74590376     0.35600
C962        C  0.89240747  0.14955169  0.79038252     0.35600
C963        C  0.12458115  0.14944783  0.74577107     0.35600
C964        C  0.12426329  0.15296326  0.79054496     0.35600
C965        C  0.98415530  0.10395397  0.69693361    -0.21900
C966        C  0.03954709  0.10492701  0.69686758    -0.21900
C967        C  0.97966844  0.13054295  0.85518526    -0.21900
C968        C  0.03541608  0.13145906  0.85526315    -0.21900
C969        C  0.84415317  0.15931360  0.75092046    -0.23000
C970        C  0.84260136  0.16184531  0.77943609    -0.22900
C971        C  0.17509936  0.16280238  0.75169838    -0.23000
C972        C  0.17518494  0.16460558  0.78042842    -0.22900
C973        C  0.91395202  0.13662222  0.72029728    -0.18300
C974        C  0.10707849  0.13953697  0.72001946    -0.18300
C975        C  0.10703413  0.14790425  0.81892676    -0.18300
C976        C  0.90852066  0.14588362  0.81877595    -0.18300
H977        H  0.96003529  0.09136858  0.68228067     0.14600
H978        H  0.06526814  0.09353735  0.68215939     0.14600
H979        H  0.95403320  0.12439402  0.87366805     0.14600
H980        H  0.06069079  0.12606526  0.87390359     0.14600
H981        H  0.81180744  0.16623906  0.73579078     0.12900
H982        H  0.80884973  0.17133960  0.79081305     0.12900
H983        H  0.20866790  0.16922517  0.73718665     0.12900
H984        H  0.20884127  0.17303787  0.79251968     0.12900
H985        H  0.00950429  0.15678214  0.74276241     0.26200
H986        H  0.00773295  0.15872755  0.78962399     0.26200
N987        N  0.97262271  0.34962336  0.73755881    -0.36600
N988        N  0.89771639  0.36375831  0.77945194    -0.57200
N989        N  0.98942640  0.35852773  0.81657204    -0.36600
N990        N  0.06496962  0.34336694  0.77606958    -0.57200
C991        C  0.93137174  0.36593390  0.72201577     0.27000
C992        C  0.01716280  0.35301976  0.72090579     0.27000
C993        C  0.95010504  0.37234670  0.83114159     0.27000
C994        C  0.03673185  0.36433005  0.82935384     0.27000
C995        C  0.86163275  0.35991120  0.75908469     0.35600
C996        C  0.87098810  0.35752647  0.80411009     0.35600
C997        C  0.08686014  0.32830242  0.75492486     0.35600
C998        C  0.09591504  0.33398652  0.79916922     0.35600
C999        C  0.95053536  0.38015803  0.69539761    -0.21900
C1000       C  0.00473171  0.37257879  0.69491759    -0.21900
C1001       C  0.97251133  0.38865781  0.85268631    -0.21900
C1002       C  0.02753009  0.38371766  0.85149845    -0.21900
C1003       C  0.81046054  0.35262580  0.77067025    -0.23000
C1004       C  0.81689081  0.34970198  0.79962525    -0.22900
C1005       C  0.13343922  0.30962887  0.76432437    -0.23000
C1006       C  0.13911772  0.31318176  0.79266771    -0.22900
C1007       C  0.87613458  0.36490154  0.73047161    -0.18300
C1008       C  0.06630899  0.33444402  0.72714221    -0.18300
C1009       C  0.08499165  0.34594737  0.82518775    -0.18300
C1010       C  0.89543937  0.36234872  0.82971846    -0.18300
H1011       H  0.92830622  0.39375240  0.67759782     0.14600
H1012       H  0.03143419  0.37932146  0.67692642     0.14600
H1013       H  0.95103308  0.40014217  0.86897767     0.14600
H1014       H  0.05672654  0.39092457  0.86667031     0.14600
H1015       H  0.77273911  0.34981554  0.75961949     0.12900
H1016       H  0.78518879  0.34403009  0.81534823     0.12900
H1017       H  0.16052414  0.29535934  0.75205328     0.12900
H1018       H  0.17130225  0.30215811  0.80669098     0.12900
H1019       H  0.96905489  0.33248527  0.75663265     0.26200
H1020       H  0.98280058  0.33941699  0.80322062     0.26200
N1021       N  0.49078191  0.40882918  0.80966528    -0.36600
N1022       N  0.40691622  0.42328853  0.76670548    -0.57200
N1023       N  0.49481265  0.42599409  0.72723619    -0.36600
N1024       N  0.57790871  0.41197747  0.76950427    -0.57200
C1025       C  0.44770896  0.41783367  0.82459544     0.27000
C1026       C  0.53512232  0.41053237  0.82602602     0.27000
C1027       C  0.45210773  0.43648289  0.71031380     0.27000
C1028       C  0.54036090  0.43322117  0.71166587     0.27000
C1029       C  0.37641812  0.41105130  0.78945036     0.35600
C1030       C  0.37871095  0.41644154  0.74388210     0.35600
C1031       C  0.60491658  0.39647475  0.79239619     0.35600
C1032       C  0.60773860  0.40657602  0.74703403     0.35600
C1033       C  0.46508866  0.42585055  0.85061690    -0.21900
C1034       C  0.52027105  0.42124711  0.85150941    -0.21900
C1035       C  0.47071817  0.45131780  0.68383860    -0.21900
C1036       C  0.52624730  0.44919555  0.68466222    -0.21900
C1037       C  0.32746249  0.39775674  0.78111165    -0.23000
C1038       C  0.32903252  0.40085886  0.75202273    -0.22900
C1039       C  0.65337683  0.38193225  0.78467003    -0.23000
C1040       C  0.65510560  0.38833646  0.75557003    -0.22900
C1041       C  0.39306063  0.41230551  0.81740386    -0.18300
C1042       C  0.58717200  0.39818361  0.81992571    -0.18300
C1043       C  0.59230287  0.41884652  0.71915888    -0.18300
C1044       C  0.39808557  0.42491970  0.71601986    -0.18300
H1045       H  0.44046503  0.43251995  0.86784567     0.14600
H1046       H  0.54607227  0.42399815  0.86941074     0.14600
H1047       H  0.44661082  0.45980843  0.66514980     0.14600
H1048       H  0.55269092  0.45561423  0.66657001     0.14600
H1049       H  0.29505068  0.38613996  0.79463120     0.12900
H1050       H  0.29754382  0.39261299  0.73849059     0.12900
H1051       H  0.68416798  0.36856032  0.79849666     0.12900
H1052       H  0.68730472  0.38067911  0.74225004     0.12900
H1053       H  0.48875195  0.39596150  0.79187099     0.26200
H1054       H  0.49234955  0.40801883  0.74578305     0.26200
N1055       N  0.49332223  0.11445104  0.73286048    -0.36600
N1056       N  0.41325788  0.10529943  0.77772382    -0.57200
N1057       N  0.50398282  0.10489587  0.81537940    -0.36600
N1058       N  0.58303399  0.11482029  0.77034907    -0.57200
C1059       C  0.44670758  0.12242822  0.71845961     0.27000
C1060       C  0.53483579  0.12416634  0.71480700     0.27000
C1061       C  0.46079390  0.10851531  0.83218783     0.27000
C1062       C  0.54753568  0.11773020  0.82801034     0.27000
C1063       C  0.38097636  0.09910914  0.75624091     0.35600
C1064       C  0.38730561  0.09198915  0.80180876     0.35600
C1065       C  0.61188356  0.11027275  0.74725649     0.35600
C1066       C  0.61787494  0.11099364  0.79220267     0.35600
C1067       C  0.45905809  0.13860252  0.69115199    -0.21900
C1068       C  0.51470843  0.13986736  0.68893965    -0.21900
C1069       C  0.47689032  0.12389880  0.85547228    -0.21900
C1070       C  0.53136860  0.12980142  0.85282894    -0.21900
C1071       C  0.33309125  0.08268091  0.76670160    -0.23000
C1072       C  0.33723787  0.07800550  0.79581957    -0.22900
C1073       C  0.66612834  0.10423757  0.75430572    -0.23000
C1074       C  0.67003438  0.10518876  0.78298847    -0.22900
C1075       C  0.39467800  0.10916119  0.72757069    -0.18300
C1076       C  0.58948856  0.11414706  0.71991528    -0.18300
C1077       C  0.60230276  0.11459389  0.81984905    -0.18300
C1078       C  0.40832078  0.09481549  0.82869945    -0.18300
H1079       H  0.43120759  0.14658116  0.67391740     0.14600
H1080       H  0.53767551  0.14896300  0.66991867     0.14600
H1081       H  0.45232942  0.12963339  0.87301862     0.14600
H1082       H  0.55609711  0.14067544  0.86822741     0.14600
H1083       H  0.29928311  0.07443271  0.75469638     0.12900
H1084       H  0.30710118  0.06591593  0.81077873     0.12900
H1085       H  0.69944148  0.10049624  0.74024558     0.12900
H1086       H  0.70674434  0.10208187  0.79555085     0.12900
H1087       H  0.49652077  0.09710829  0.75175067     0.26200
H1088       H  0.50489033  0.08957890  0.79893203     0.26200
C1089       C  0.32204995  0.42928562  0.64725037    -0.05800
C1090       C  0.34480054  0.39984537  0.63623390     0.00100
C1091       C  0.37886066  0.37585697  0.65417029    -0.08400
C1092       C  0.39012953  0.38352379  0.68148284    -0.05800
C1093       C  0.36832995  0.41342540  0.69181046     0.00100
C1094       C  0.33036530  0.43515992  0.67521021    -0.08300
C1095       C  0.29388581  0.46236182  0.68630231     0.62000
H1096       H  0.29472799  0.44724264  0.63432890     0.12700
H1097       H  0.41859809  0.36706098  0.69487036     0.12700
C1098       C  0.40373381  0.34233357  0.64525336     0.62300
F1099       F  0.30787492  0.46871396  0.71304899    -0.22900
F1100       F  0.24095085  0.44983984  0.68730239    -0.20200
F1101       F  0.29527515  0.49433871  0.66819015    -0.19900
F1102       F  0.43683564  0.35158868  0.62194884    -0.20000
F1103       F  0.36292052  0.31938402  0.63902778    -0.20300
F1104       F  0.43545166  0.32373885  0.66636968    -0.22900
C1105       C  0.31544058  0.41722113  0.88398486    -0.05800
C1106       C  0.32017847  0.38130823  0.89737812     0.00100
C1107       C  0.33615002  0.35457600  0.88074289    -0.08400
C1108       C  0.35444366  0.36577482  0.85300127    -0.05800
C1109       C  0.35541668  0.40198423  0.84126129     0.00100
C1110       C  0.33241705  0.42794342  0.85600008    -0.08300
C1111       C  0.32687973  0.46671641  0.84213459     0.62000
H1112       H  0.29963917  0.43735361  0.89578750     0.12700
H1113       H  0.37179274  0.34658047  0.84074162     0.12700
C1114       C  0.33594463  0.31467173  0.89183517     0.62300
F1115       F  0.29583169  0.46794763  0.81789092    -0.22900
F1116       F  0.37735863  0.48149685  0.83488017    -0.20200
F1117       F  0.30186077  0.48769567  0.85982827    -0.19900
F1118       F  0.28389815  0.30378503  0.90015241    -0.20000
F1119       F  0.37135173  0.30755012  0.91439303    -0.20300
F1120       F  0.35211272  0.29427937  0.87143276    -0.22900
C1121       C  0.14644503  0.34623379  0.69666250    -0.05800
C1122       C  0.09849544  0.32661287  0.70255375     0.00100
C1123       C  0.07371317  0.31007586  0.68087131    -0.08400
C1124       C  0.09229487  0.31909876  0.65306365    -0.05800
C1125       C  0.13686145  0.34214199  0.64657637     0.00100
C1126       C  0.16695522  0.35323930  0.66904501    -0.08300
C1127       C  0.22084384  0.37176173  0.66395802     0.62000
H1128       H  0.16543798  0.35844566  0.71339150     0.12700
H1129       H  0.07121699  0.30833432  0.63618701     0.12700
C1130       C  0.02511467  0.28510640  0.68569874     0.62300
F1131       F  0.21251304  0.40549814  0.64910008    -0.22900
F1132       F  0.25343291  0.35171750  0.64872378    -0.20200
F1133       F  0.24734795  0.37509907  0.68898889    -0.19900
F1134       F  0.97971679  0.30183636  0.67289416    -0.20000
F1135       F  0.01430380  0.27465464  0.71408474    -0.20300
F1136       F  0.03534657  0.25461826  0.67366586    -0.22900
C1137       C  0.10002250  0.31176695  0.87217281    -0.05800
C1138       C  0.12016145  0.33758885  0.85040047     0.00100
C1139       C  0.15973981  0.36255470  0.85661570    -0.08400
C1140       C  0.17617832  0.36204853  0.88483455    -0.05800
C1141       C  0.15287452  0.33802593  0.90670663     0.00100
C1142       C  0.11546012  0.31186045  0.90046879    -0.08300
C1143       C  0.08982390  0.28580999  0.92396813     0.62000
H1144       H  0.06819929  0.29373654  0.86715204     0.12700
H1145       H  0.20520052  0.38161185  0.89024159     0.12700
C1146       C  0.18111345  0.39106507  0.83364444     0.62300
F1147       F  0.05576337  0.26151548  0.91353848    -0.22900
F1148       F  0.05989162  0.30457921  0.94142055    -0.20200
F1149       F  0.12993754  0.26680253  0.93977744    -0.19900
F1150       F  0.13926976  0.41299135  0.82238761    -0.20000
F1151       F  0.20407325  0.37473685  0.81248126    -0.20300
F1152       F  0.21997560  0.41242416  0.84379607    -0.22900
C1153       C  0.61339877  0.35391246  0.86005041    -0.05800
C1154       C  0.62330167  0.38743033  0.84402960     0.00100
C1155       C  0.65565195  0.41317246  0.85482327    -0.08400
C1156       C  0.67290969  0.40571029  0.88291486    -0.05800
C1157       C  0.65793203  0.37368894  0.90018990     0.00100
C1158       C  0.63032545  0.34641185  0.88827730    -0.08300
C1159       C  0.61653361  0.31043376  0.90538603     0.62000
H1160       H  0.58845992  0.33481266  0.85088098     0.12700
H1161       H  0.69552482  0.42585902  0.89213426     0.12700
C1162       C  0.66709367  0.44951566  0.83752004     0.62300
F1163       F  0.58647211  0.28893207  0.88993245    -0.22900
F1164       F  0.58663961  0.31525747  0.92905668    -0.20200
F1165       F  0.66409994  0.29262559  0.91357361    -0.19900
F1166       F  0.61907746  0.46810752  0.83195458    -0.20000
F1167       F  0.69128739  0.44520411  0.81215034    -0.20300
F1168       F  0.70146259  0.47001488  0.85159183    -0.22900
C1169       C  0.66817458  0.43484906  0.65158824    -0.05800
C1170       C  0.64802704  0.40611180  0.63857572     0.00100
C1171       C  0.62018201  0.37731477  0.65568680    -0.08400
C1172       C  0.60921544  0.38062376  0.68384792    -0.05800
C1173       C  0.62607882  0.41047135  0.69566362     0.00100
C1174       C  0.65989497  0.43644699  0.68039628    -0.08300
C1175       C  0.68824961  0.46460963  0.69491246     0.62000
H1176       H  0.69069350  0.45617724  0.63914866     0.12700
H1177       H  0.58354831  0.36113295  0.69656404     0.12700
C1178       C  0.60122835  0.34312305  0.64517355     0.62300
F1179       F  0.72580198  0.44793707  0.71386903    -0.22900
F1180       F  0.65157739  0.48243817  0.70958667    -0.20200
F1181       F  0.71522910  0.48971683  0.67581374    -0.19900
F1182       F  0.64529257  0.32639692  0.63482690    -0.20000
F1183       F  0.56207422  0.35112170  0.62450338    -0.20300
F1184       F  0.57819428  0.31882323  0.66643467    -0.22900
C1185       C  0.81586684  0.37296672  0.89478232    -0.05800
C1186       C  0.83859794  0.34520278  0.91374189     0.00100
C1187       C  0.87699391  0.32191886  0.90480599    -0.08400
C1188       C  0.88841965  0.32539693  0.87586057    -0.05800
C1189       C  0.86708392  0.35406746  0.85682999     0.00100
C1190       C  0.83224524  0.37923476  0.86655959    -0.08300
C1191       C  0.81685885  0.41411136  0.84826004     0.62000
H1192       H  0.78798238  0.39127242  0.90281892     0.12700
H1193       H  0.91868400  0.30830371  0.86825298     0.12700
C1194       C  0.90857312  0.29627141  0.92615456     0.62300
F1195       F  0.79318541  0.43774312  0.86414469    -0.22900
F1196       F  0.78063026  0.40732597  0.82766239    -0.20200
F1197       F  0.86238981  0.43097037  0.83549477    -0.19900
F1198       F  0.87328368  0.27238808  0.94159979    -0.20000
F1199       F  0.93592749  0.31542409  0.94442608    -0.20300
F1200       F  0.94667031  0.27715292  0.91330808    -0.22900
C1201       C  0.83134566  0.40665234  0.69397269    -0.05800
C1202       C  0.83475188  0.37135868  0.70792315     0.00100
C1203       C  0.81561860  0.34276659  0.69446336    -0.08400
C1204       C  0.79885516  0.35038279  0.66628257    -0.05800
C1205       C  0.80651911  0.38454368  0.65036984     0.00100
C1206       C  0.82195654  0.41366262  0.66464638    -0.08300
C1207       C  0.83507384  0.45080571  0.64912605     0.62000
H1208       H  0.84589798  0.42787357  0.70514492     0.12700
H1209       H  0.78382283  0.32867189  0.65583636     0.12700
C1210       C  0.81677718  0.30403845  0.70889123     0.62300
F1211       F  0.85505487  0.47333037  0.66714476    -0.22900
F1212       F  0.78891083  0.46637546  0.63656736    -0.20200
F1213       F  0.87431245  0.44840197  0.62874593    -0.19900
F1214       F  0.78467749  0.30014505  0.73281134    -0.20000
F1215       F  0.86944257  0.29411899  0.71638086    -0.20300
F1216       F  0.79723547  0.28055178  0.69145589    -0.22900
C1217       C  0.64925684  0.07882577  0.65584017    -0.05800
C1218       C  0.68327080  0.10738003  0.64509919     0.00100
C1219       C  0.69006091  0.13670903  0.66060529    -0.08400
C1220       C  0.66165709  0.13644759  0.68600402    -0.05800
C1221       C  0.62432275  0.10942488  0.69539950     0.00100
C1222       C  0.61741096  0.08018440  0.68009079    -0.08300
C1223       C  0.57341563  0.05220731  0.68773885     0.62000
H1224       H  0.64329465  0.05735467  0.64329896     0.12700
H1225       H  0.66585105  0.15892441  0.69771710     0.12700
C1226       C  0.72324444  0.17021810  0.65097599     0.62300
F1227       F  0.58527408  0.51744020  0.67075704    -0.22900
F1228       F  0.52815154  0.56042195  0.67898339    -0.20200
F1229       F  0.57759843  0.53116652  0.71473559    -0.19900
F1230       F  0.68850986  0.19916863  0.64550034    -0.20000
F1231       F  0.75335616  0.16810284  0.62714055    -0.20300
F1232       F  0.75886584  0.17631641  0.67217665    -0.22900
C1233       C  0.66219777  0.09106615  0.89072063    -0.05800
C1234       C  0.66733972  0.12570154  0.89834679     0.00100
C1235       C  0.66619699  0.15598043  0.87638704    -0.08400
C1236       C  0.65654181  0.14991736  0.84844957    -0.05800
C1237       C  0.64301081  0.11585638  0.84233632     0.00100
C1238       C  0.64917572  0.08570712  0.86315509    -0.08300
C1239       C  0.63860725  0.04816029  0.85641323     0.62000
H1240       H  0.66502752  0.06786805  0.90684229     0.12700
H1241       H  0.65119634  0.17230551  0.83175320     0.12700
C1242       C  0.67141299  0.19473391  0.88164243     0.62300
F1243       F  0.58449408  0.04410444  0.84964213    -0.22900
F1244       F  0.65099516  0.02225182  0.87905509    -0.20200
F1245       F  0.67049056  0.04239848  0.83370195    -0.19900
F1246       F  0.72064561  0.19980762  0.89402843    -0.20000
F1247       F  0.62953662  0.20316705  0.89880556    -0.20300
F1248       F  0.66936197  0.21880705  0.85687514    -0.22900
C1249       C  0.85982479  0.10957272  0.68679996    -0.05800
C1250       C  0.88068780  0.14111806  0.69450247     0.00100
C1251       C  0.88952736  0.17122725  0.67380419    -0.08400
C1252       C  0.88141870  0.16760887  0.64533249    -0.05800
C1253       C  0.86876960  0.13413560  0.63697658     0.00100
C1254       C  0.85989864  0.10397728  0.65842761    -0.08300
C1255       C  0.85744738  0.06527590  0.65270557     0.62000
H1256       H  0.85371528  0.08726658  0.70352453     0.12700
H1257       H  0.88772422  0.19070350  0.62937479     0.12700
C1258       C  0.90999985  0.20638579  0.68196433     0.62300
F1259       F  0.85937129  0.04112372  0.67741718    -0.22900
F1260       F  0.90155503  0.05819480  0.63643732    -0.20200
F1261       F  0.80984553  0.05887427  0.63920972    -0.19900
F1262       F  0.96227876  0.20215825  0.69245924    -0.20000
F1263       F  0.87662788  0.21683415  0.70252554    -0.20300
F1264       F  0.91052056  0.23357352  0.65916494    -0.22900
C1265       C  0.81441162  0.12577219  0.88140362    -0.05800
C1266       C  0.82513332  0.15605547  0.89466059     0.00100
C1267       C  0.85369452  0.18552669  0.87972503    -0.08400
C1268       C  0.87315778  0.18283270  0.85254149    -0.05800
C1269       C  0.86856398  0.15091875  0.84102376     0.00100
C1270       C  0.83689279  0.12227783  0.85490279    -0.08300
C1271       C  0.83095044  0.08724467  0.84298392     0.62000
H1272       H  0.79193124  0.10362587  0.89303826     0.12700
H1273       H  0.89731953  0.20429875  0.84113187     0.12700
C1274       C  0.86843437  0.21821198  0.89315210     0.62300
F1275       F  0.88120297  0.07107446  0.84229676    -0.22900
F1276       F  0.81018497  0.09364632  0.81588638    -0.20200
F1277       F  0.79618275  0.06358174  0.85914458    -0.19900
F1278       F  0.89426503  0.20783892  0.91870660    -0.20000
F1279       F  0.82201030  0.23720518  0.89741077    -0.20300
F1280       F  0.90330457  0.24070023  0.87609128    -0.22900
C1281       C  0.34036885  0.10966105  0.89528779    -0.05800
C1282       C  0.36500400  0.08221259  0.91410394     0.00100
C1283       C  0.39125025  0.05373964  0.90316678    -0.08400
C1284       C  0.39541877  0.05550802  0.87359192    -0.05800
C1285       C  0.37644531  0.08529717  0.85506025     0.00100
C1286       C  0.34597674  0.11195263  0.86588229    -0.08300
C1287       C  0.32425837  0.14445091  0.84662267     0.62000
H1288       H  0.31894364  0.13061074  0.90388509     0.12700
H1289       H  0.41933995  0.03577419  0.86472164     0.12700
C1290       C  0.41877928  0.02340199  0.92229043     0.62300
F1291       F  0.29608437  0.16734316  0.86152559    -0.22900
F1292       F  0.28930370  0.13339082  0.82695185    -0.20200
F1293       F  0.36661461  0.16371846  0.83266397    -0.19900
F1294       F  0.38053998  0.00352439  0.93897307    -0.20000
F1295       F  0.45634399  0.03730161  0.93936724    -0.20300
F1296       F  0.44579369  0.00034021  0.90701070    -0.22900
C1297       C  0.33645454  0.07357912  0.66459152    -0.05800
C1298       C  0.31210829  0.10467405  0.65054155     0.00100
C1299       C  0.30765692  0.13546783  0.66444623    -0.08400
C1300       C  0.32819658  0.13383868  0.69193035    -0.05800
C1301       C  0.35571321  0.10360058  0.70508574     0.00100
C1302       C  0.35885315  0.07251475  0.69176477    -0.08300
C1303       C  0.38757035  0.03893931  0.70581388     0.62000
H1304       H  0.34150468  0.05109028  0.65312874     0.12700
H1305       H  0.32776276  0.15775755  0.70213392     0.12700
C1306       C  0.28605314  0.17160704  0.65097679     0.62300
F1307       F  0.39069151  0.01334336  0.68796357    -0.22900
F1308       F  0.35951804  0.02463767  0.72986930    -0.20200
F1309       F  0.43998219  0.04649246  0.71339134    -0.19900
F1310       F  0.26165018  0.17076488  0.62513977    -0.20000
F1311       F  0.32861848  0.19591516  0.64726741    -0.20300
F1312       F  0.24813817  0.18371541  0.66872730    -0.22900
C1313       C  0.19123458  0.11336325  0.88223987    -0.05800
C1314       C  0.19169516  0.14366386  0.89616933     0.00100
C1315       C  0.17484828  0.17723135  0.88171731    -0.08400
C1316       C  0.15270253  0.17857078  0.85450485    -0.05800
C1317       C  0.14764170  0.14753906  0.84173728     0.00100
C1318       C  0.16984970  0.11481898  0.85491885    -0.08300
C1319       C  0.16823466  0.08131975  0.84069789     0.62000
H1320       H  0.20578062  0.08814974  0.89345016     0.12700
H1321       H  0.13546805  0.20325404  0.84378382     0.12700
C1322       C  0.17689871  0.21081800  0.89562902     0.62300
F1323       F  0.19555644  0.05310328  0.85631123    -0.22900
F1324       F  0.19270213  0.08829585  0.81443885    -0.20200
F1325       F  0.11498357  0.07076947  0.83740059    -0.19900
F1326       F  0.23029450  0.21947616  0.90058712    -0.20000
F1327       F  0.14883617  0.20506370  0.92093408    -0.20300
F1328       F  0.15389578  0.23976296  0.87877230    -0.22900
C1329       C  0.17126021  0.11870552  0.65413849    -0.05800
C1330       C  0.14738417  0.14551508  0.63432037     0.00100
C1331       C  0.11925043  0.17392702  0.64446593    -0.08400
C1332       C  0.11851139  0.17509342  0.67374780    -0.05800
C1333       C  0.13841122  0.14672111  0.69331517     0.00100
C1334       C  0.16725238  0.11876198  0.68344244    -0.08300
C1335       C  0.19075017  0.08815210  0.70394141     0.62000
H1336       H  0.19169031  0.09668784  0.64656579     0.12700
H1337       H  0.09456002  0.19560451  0.68167438     0.12700
C1338       C  0.08294149  0.20063799  0.62660161     0.62300
F1339       F  0.21931809  0.06424779  0.69015753    -0.22900
F1340       F  0.14975833  0.06934792  0.71944603    -0.20200
F1341       F  0.22579095  0.10193201  0.72222910    -0.19900
F1342       F  0.07950358  0.19498754  0.59882125    -0.20000
F1343       F  0.10187827  0.23503182  0.62752666    -0.20300
F1344       F  0.03077725  0.19776995  0.63762672    -0.22900
C1345       C  0.54699229  0.76985195  0.00400771     0.02300
C1346       C  0.55338563  0.73563040  0.49744242     0.02200
C1347       C  0.50431475  0.71590673  0.49561477    -0.18300
C1348       C  0.45173470  0.72994723  0.49995276     0.02300
C1349       C  0.44574899  0.76390774  0.00542275     0.02200
C1350       C  0.49428062  0.78407614  0.00676832    -0.18300
H1351       H  0.49091615  0.81160281  0.01074690     0.04300
H1352       H  0.50741120  0.68782522  0.49312855     0.04300
C1353       C  0.94454137  0.97661948  0.04146018     0.02300
C1354       C  0.94823701  0.51482527  0.04497665     0.02200
C1355       C  0.00158835  0.52870180  0.04786225    -0.18300
C1356       C  0.05004751  0.50832016  0.04615352     0.02300
C1357       C  0.04667520  0.97188929  0.04108096     0.02200
C1358       C  0.99367667  0.95677256  0.04025669    -0.18300
H1359       H  0.99059131  0.92868187  0.03776504     0.04300
H1360       H  0.00567062  0.55704887  0.04931971     0.04300
Zr1361     Zr  0.21288725  0.57466043  0.07052177     2.19900
O1362       O  0.21218079  0.51910845  0.10369934    -0.51300
O1363       O  0.15164239  0.60521692  0.09842910    -0.74500
O1364       O  0.26413549  0.58012513  0.11378451    -0.81300
O1365       O  0.11131401  0.54461570  0.01650999    -0.83100
O1366       O  0.32677875  0.62490788  0.10415777    -0.78700
O1367       O  0.13129391  0.53621875  0.06350368    -0.90300
O1368       O  0.17259086  0.66397831  0.08720350    -0.76300
O1369       O  0.24587119  0.63465828  0.06807839    -0.85800
O1370       O  0.15734497  0.61147033  0.03757161    -0.85500
O1371       O  0.30804480  0.57589468  0.05695436    -0.72200
O1372       O  0.22749765  0.55271149  0.02669977    -0.84400
Zr1373     Zr  0.30130572  0.65425570  0.47700644     2.26400
Zr1374     Zr  0.33887193  0.63704191  0.05364470     2.06300
Zr1375     Zr  0.17314768  0.59461415  0.49312729     2.10000
Zr1376     Zr  0.19010424  0.67116197  0.03598800     1.78800
O1377       O  0.15015683  0.55010041  0.46271604    -0.93200
O1378       O  0.22505179  0.72854057  0.04523480    -0.41000
O1379       O  0.20681553  0.65469580  0.49133577    -0.77600
O1380       O  0.28379112  0.67501752  0.02049733    -0.96300
O1381       O  0.35603726  0.61481147  0.01022521    -0.89600
O1382       O  0.26549648  0.59501581  0.47886385    -0.92400
C1383       C  0.15633691  0.63688827  0.10485655     1.01300
C1384       C  0.10220646  0.52986487  0.04200196     1.14200
C1385       C  0.29958524  0.60223702  0.12122035     1.05000
O1386       O  0.37681479  0.68068864  0.08129765    -0.94600
O1387       O  0.39664336  0.68608230  0.03142599    -0.90300
O1388       O  0.37613678  0.69693230  0.48377126    -0.83500
C1389       C  0.40566545  0.70336072  0.50480443     1.11700
O1390       O  0.35320287  0.50551547  0.04660785    -0.96600
Zr1391     Zr  0.32093040  0.55736343  0.51117745     1.88900
O1392       O  0.36462961  0.62127053  0.45117066    -0.73200
O1393       O  0.42170059  0.60183431  0.06149869    -0.52500
O1394       O  0.41834627  0.54427516  0.00821187    -0.97200
O1395       O  0.27283510  0.50719881  0.49650079    -0.54400
O1396       O  0.34824920  0.56192029  0.46193029    -0.73700
C1397       C  0.36138574  0.58960165  0.44437072     0.98600
O1398       O  0.31178277  0.70294888  0.43767508    -0.62600
O1399       O  0.08534361  0.62433291  0.48652615    -0.57400
O1400       O  0.24554606  0.65863351  0.43480057    -0.94000
O1401       O  0.17718542  0.61745558  0.44283333    -0.92500
O1402       O  0.09318430  0.68140401  0.04174699    -0.92800
O1403       O  0.14329833  0.71081355  0.99890336    -0.91600
C1404       C  0.20545112  0.64082311  0.42668718     1.17500
H1405       H  0.11947741  0.60937592  0.04293306     0.33400
H1406       H  0.29659902  0.69945086  0.01823755     0.44200
H1407       H  0.26356397  0.58756344  0.46044291     0.37800
H1408       H  0.32844960  0.56126623  0.07151440     0.34300
H1409       H  0.26007487  0.72328283  0.05514903     0.26000
H1410       H  0.44877706  0.61503108  0.04858530     0.32000
H1411       H  0.42306466  0.52886032  0.49633945     0.37900
H1412       H  0.07450475  0.66614654  0.02947787     0.32300
H1413       H  0.08629869  0.63753604  0.46707021     0.31200
H1414       H  0.11107985  0.55388420  0.45831664     0.32900
H1415       H  0.23799398  0.51688062  0.48840500     0.31900
H1416       H  0.14505741  0.73513599  0.00427885     0.35900
H1417       H  0.32275660  0.72502486  0.44513396     0.28600
H1418       H  0.19521089  0.52530947  0.12113745     0.32800
H1419       H  0.38337497  0.51519722  0.05699455     0.35700
H1420       H  0.07052200  0.60678872  0.96641397     0.28300
H1421       H  0.34400813  0.69638946  0.42713045     0.41200
H1422       H  0.34598752  0.69654500  0.08430049     0.31200
H1423       H  0.23471473  0.74162190  0.02648239     0.38800
H1424       H  0.26294155  0.49205625  0.51438298     0.30700
H1425       H  0.43386125  0.60542515  0.08063625     0.30800
H1426       H  0.25070858  0.51409424  0.10878711     0.31000
Zr1427     Zr  0.72612665  0.67914061  0.47463098     2.17500
O1428       O  0.73084709  0.73992388  0.44939691    -0.51300
O1429       O  0.67763205  0.65888315  0.43604380    -0.74500
O1430       O  0.78448866  0.67906048  0.43329485    -0.81300
O1431       O  0.60990531  0.69592054  0.02692640    -0.83100
O1432       O  0.82855726  0.62564426  0.43927541    -0.78700
O1433       O  0.63953292  0.71299693  0.48075627    -0.90300
O1434       O  0.68480965  0.59895028  0.44584812    -0.76300
O1435       O  0.75344610  0.61920706  0.47188647    -0.85800
O1436       O  0.66273869  0.64058674  0.00272661    -0.85500
O1437       O  0.81938200  0.67096291  0.49136310    -0.72200
O1438       O  0.73950989  0.69264046  0.02286518    -0.84400
Zr1439     Zr  0.78849659  0.58352334  0.06536950     2.26400
Zr1440     Zr  0.84350525  0.60934285  0.48946138     2.06300
Zr1441     Zr  0.67488614  0.65363563  0.04971721     2.10000
Zr1442     Zr  0.68864784  0.58092890  0.99907388     1.78800
O1443       O  0.66573324  0.70707696  0.07262034    -0.93200
O1444       O  0.72238056  0.52951776  0.47622619    -0.41000
O1445       O  0.69703241  0.59203400  0.04718142    -0.77600
O1446       O  0.77846625  0.56908171  0.01838586    -0.96300
O1447       O  0.85437991  0.62054748  0.03873348    -0.89600
O1448       O  0.76479028  0.64427208  0.06680335    -0.92400
C1449       C  0.67743351  0.62784091  0.42838143     1.01300
C1450       C  0.60546819  0.71448221  0.50140071     1.14200
C1451       C  0.81129293  0.65405894  0.42387412     1.05000
O1452       O  0.88123409  0.56785838  0.45998036    -0.94600
O1453       O  0.90148952  0.56141554  0.01573681    -0.90300
O1454       O  0.86609190  0.54297424  0.05935543    -0.83500
C1455       C  0.90183935  0.54103659  0.03979153     1.11700
O1456       O  0.87525486  0.73560241  0.01896926    -0.96600
Zr1457     Zr  0.83052616  0.68092638  0.04113043     1.88900
O1458       O  0.85216947  0.60231144  0.09841994    -0.73200
O1459       O  0.92649531  0.64481731  0.48083355    -0.52500
O1460       O  0.92958802  0.67973603  0.04096194    -0.97200
O1461       O  0.80186390  0.72927942  0.06606968    -0.54400
O1462       O  0.85544923  0.66267981  0.09049322    -0.73700
C1463       C  0.86014759  0.63252348  0.10671750     0.98600
O1464       O  0.77601063  0.52635156  0.09581044    -0.62600
O1465       O  0.58661859  0.62747796  0.06407723    -0.57400
O1466       O  0.73350890  0.58703594  0.10792448    -0.94000
O1467       O  0.67328559  0.63306656  0.09975261    -0.92500
O1468       O  0.59102054  0.57980328  0.99037326    -0.92800
O1469       O  0.63395741  0.53250931  0.02421441    -0.91600
C1470       C  0.69793537  0.60838348  0.11602912     1.17500
H1471       H  0.62620078  0.64408362  0.49463435     0.33400
H1472       H  0.78860233  0.54442185  0.01810205     0.44200
H1473       H  0.76439284  0.65017294  0.08558699     0.37800
H1474       H  0.84285617  0.68681413  0.47906108     0.34300
H1475       H  0.70267265  0.53178647  0.45802339     0.26000
H1476       H  0.95524447  0.62970856  0.49089282     0.32000
H1477       H  0.94059515  0.68821011  0.05880670     0.37900
H1478       H  0.59230412  0.56917675  0.46736060     0.32300
H1479       H  0.56211462  0.64812787  0.06471596     0.31200
H1480       H  0.64369886  0.69958099  0.08979958     0.32900
H1481       H  0.83070608  0.73100779  0.08025348     0.31900
H1482       H  0.62567186  0.54004736  0.04274828     0.35900
H1483       H  0.73659358  0.52103670  0.09570610     0.28600
H1484       H  0.71303689  0.73840008  0.43106449     0.32800
H1485       H  0.88953206  0.73037320  0.00065246     0.35700
H1486       H  0.57391597  0.61648554  0.04763083     0.28300
H1487       H  0.79369670  0.50769522  0.08645975     0.41200
H1488       H  0.85779935  0.54625468  0.46351229     0.31200
H1489       H  0.76042885  0.53534057  0.47056421     0.38800
H1490       H  0.77041393  0.71890492  0.07733750     0.30700
H1491       H  0.93448066  0.64477335  0.46053712     0.30800
H1492       H  0.76972322  0.74411638  0.44468261     0.31000
Zr1493     Zr  0.75925670  0.92760508  0.05562693     2.17500
O1494       O  0.72774885  0.98899719  0.04819471    -0.51300
O1495       O  0.79469493  0.91444622  0.10236392    -0.74500
O1496       O  0.69932805  0.92757699  0.09599675    -0.81300
O1497       O  0.89452767  0.93719963  0.01697747    -0.83100
O1498       O  0.64154521  0.88053613  0.09553669    -0.78700
O1499       O  0.84873709  0.96032052  0.05146927    -0.90300
O1500       O  0.80615606  0.85442399  0.10802117    -0.76300
O1501       O  0.72674512  0.86882335  0.07236674    -0.85800
O1502       O  0.82744083  0.88570134  0.04765609    -0.85500
O1503       O  0.67261582  0.91817943  0.03379000    -0.72200
O1504       O  0.76696161  0.93704107  0.00547213    -0.84400
Zr1505     Zr  0.72589174  0.82779087  0.49049122     2.26400
Zr1506     Zr  0.64287085  0.85795074  0.05039862     2.06300
Zr1507     Zr  0.83678861  0.89851638  0.49653316     2.10000
Zr1508     Zr  0.79390644  0.82750736  0.06509397     1.78800
O1509       O  0.85234613  0.94878829  0.45931171    -0.93200
O1510       O  0.74221149  0.77935855  0.09286154    -0.41000
O1511       O  0.80687914  0.83502550  0.01492139    -0.77600
O1512       O  0.71055034  0.81551775  0.04175967    -0.96300
O1513       O  0.65179684  0.86580540  0.00068538    -0.89600
O1514       O  0.75313046  0.88789740  0.47458483    -0.92400
C1515       C  0.80499855  0.88458826  0.11757215     1.01300
C1516       C  0.89190526  0.95765228  0.03622858     1.14200
C1517       C  0.66355168  0.90518395  0.10775089     1.05000
O1518       O  0.60609008  0.80977828  0.08467645    -0.94600
O1519       O  0.58890762  0.81459950  0.02770484    -0.90300
O1520       O  0.64102697  0.79271484  0.49413967    -0.83500
C1521       C  0.59501643  0.79280488  0.00936668     1.11700
O1522       O  0.63300187  0.98073038  0.98417361    -0.96600
Zr1523     Zr  0.68145166  0.92522853  0.48420763     1.88900
O1524       O  0.68838006  0.84355684  0.44314361    -0.73200
O1525       O  0.55641336  0.88929751  0.04776904    -0.52500
O1526       O  0.58272573  0.92343515  0.97820747    -0.97200
O1527       O  0.71618232  0.96931312  0.44592477    -0.54400
O1528       O  0.66552190  0.90237771  0.44017827    -0.73700
C1529       C  0.67140558  0.87333696  0.42946000     0.98600
O1530       O  0.75595500  0.76603699  0.49628610    -0.62600
O1531       O  0.92943819  0.87624419  0.49674733    -0.57400
O1532       O  0.78905572  0.82674332  0.45186564    -0.94000
O1533       O  0.85171159  0.87120633  0.45467194    -0.92500
O1534       O  0.86387638  0.79804387  0.09626358    -0.92800
O1535       O  0.86557986  0.79279563  0.04704349    -0.91600
C1536       C  0.82828694  0.84746147  0.44212495     1.17500
H1537       H  0.86119895  0.88957377  0.05709953     0.33400
H1538       H  0.69738347  0.79133047  0.04720610     0.44200
H1539       H  0.75897714  0.89268952  0.45450088     0.37800
H1540       H  0.64620022  0.93503424  0.03889473     0.34300
H1541       H  0.76665285  0.76963204  0.10853573     0.26000
H1542       H  0.53836676  0.88234902  0.03084747     0.32000
H1543       H  0.57341598  0.91751001  0.46339790     0.37900
H1544       H  0.89322489  0.81611576  0.09635419     0.32300
H1545       H  0.95070382  0.89653209  0.48667569     0.31200
H1546       H  0.88700379  0.94316007  0.45041342     0.32900
H1547       H  0.68643235  0.97304515  0.43186765     0.31900
H1548       H  0.89640185  0.80965950  0.04262547     0.35900
H1549       H  0.79296912  0.76737819  0.48810133     0.28600
H1550       H  0.69080990  0.98758361  0.05649694     0.32800
H1551       H  0.62102305  0.98836023  0.96444721     0.35700
H1552       H  0.93749750  0.86745342  0.01950878     0.28300
H1553       H  0.76221293  0.76012818  0.51685218     0.41200
H1554       H  0.56614388  0.81130189  0.08227054     0.31200
H1555       H  0.71360173  0.79188966  0.10217460     0.38800
H1556       H  0.74460418  0.95663900  0.43659403     0.30700
H1557       H  0.53535667  0.87689931  0.06395649     0.30800
H1558       H  0.72154816  0.99381984  0.02758088     0.31000
Zr1559     Zr  0.26757605  0.82044294  0.48655060     2.17500
O1560       O  0.24900859  0.75976496  0.47725717    -0.51300
O1561       O  0.30680187  0.84491100  0.44118406    -0.74500
O1562       O  0.20564915  0.82060756  0.44743110    -0.81300
O1563       O  0.39350860  0.80048703  0.03169283    -0.83100
O1564       O  0.14445850  0.86584679  0.44853111    -0.78700
O1565       O  0.35530543  0.78666142  0.49246568    -0.90300
O1566       O  0.30885031  0.90479048  0.44080625    -0.76300
O1567       O  0.23573494  0.88018761  0.47378492    -0.85800
O1568       O  0.33274829  0.85720988  0.00162936    -0.85500
O1569       O  0.17806591  0.82261781  0.00684599    -0.72200
O1570       O  0.26737398  0.80174606  0.03611565    -0.84400
Zr1571     Zr  0.21525714  0.90569476  0.06168454     2.26400
Zr1572     Zr  0.14866584  0.88713782  0.49448294     2.06300
Zr1573     Zr  0.33346515  0.84188426  0.05176046     2.10000
Zr1574     Zr  0.30198169  0.91837895  0.48860001     1.78800
O1575       O  0.35862239  0.79163925  0.08716262    -0.93200
O1576       O  0.26737789  0.96935583  0.45646836    -0.41000
O1577       O  0.30259123  0.90244462  0.03889525    -0.77600
O1578       O  0.21420975  0.92368615  0.01106165    -0.96300
O1579       O  0.14817128  0.86831297  0.04538074    -0.89600
O1580       O  0.24679667  0.84580630  0.07364359    -0.92400
C1581       C  0.31251492  0.87698493  0.42835003     1.01300
C1582       C  0.39500141  0.78539929  0.51041820     1.14200
C1583       C  0.16741192  0.84114942  0.43670866     1.05000
O1584       O  0.11941904  0.93475956  0.45773148    -0.94600
O1585       O  0.09262396  0.92959558  0.01574029    -0.90300
O1586       O  0.13366519  0.94442866  0.05510043    -0.83500
C1587       C  0.09470546  0.94775084  0.03682193     1.11700
O1588       O  0.12765718  0.75529950  0.05063761    -0.96600
Zr1589     Zr  0.17944825  0.80857095  0.05727287     1.88900
O1590       O  0.16964307  0.87861611  0.10577157    -0.73200
O1591       O  0.06243295  0.85079620  0.99826195    -0.52500
O1592       O  0.08038013  0.81004995  0.05587646    -0.97200
O1593       O  0.21491931  0.75927358  0.09104534    -0.54400
O1594       O  0.15617127  0.81941360  0.10404086    -0.73700
C1595       C  0.15542450  0.84670154  0.11701811     0.98600
O1596       O  0.23265689  0.96488104  0.07438880    -0.62600
O1597       O  0.42247780  0.87059322  0.04939906    -0.57400
O1598       O  0.28151718  0.90659853  0.09896664    -0.94000
O1599       O  0.34986090  0.86752862  0.09503685    -0.92500
O1600       O  0.39568381  0.91658153  0.97358951    -0.92800
O1601       O  0.36326111  0.96279435  0.99858982    -0.91600
C1602       C  0.32524304  0.89034338  0.10802789     1.17500
H1603       H  0.36864073  0.85611714  0.49417625     0.33400
H1604       H  0.20161017  0.94805076  0.00654621     0.44200
H1605       H  0.25197586  0.83932924  0.09372456     0.37800
H1606       H  0.15333554  0.80996538  0.49952824     0.34300
H1607       H  0.29694607  0.97581297  0.44262406     0.26000
H1608       H  0.04191742  0.86524764  0.51240202     0.32000
H1609       H  0.06916622  0.82275622  0.07166128     0.37900
H1610       H  0.40044607  0.93459046  0.45723359     0.32300
H1611       H  0.44783803  0.85075773  0.05581498     0.31200
H1612       H  0.34100407  0.77049150  0.08085321     0.32900
H1613       H  0.18714917  0.75422689  0.10604939     0.31900
H1614       H  0.38123357  0.95250922  0.01645227     0.35900
H1615       H  0.27208100  0.96908796  0.07129761     0.28600
H1616       H  0.28052845  0.74534195  0.48474442     0.32800
H1617       H  0.11699256  0.74419289  0.06987178     0.35700
H1618       H  0.43012699  0.87697852  0.02896095     0.28300
H1619       H  0.21522945  0.98211936  0.05955884     0.41200
H1620       H  0.14311549  0.95544617  0.45999558     0.31200
H1621       H  0.23858647  0.95919468  0.44548899     0.38800
H1622       H  0.24573918  0.76979691  0.10037364     0.30700
H1623       H  0.04123756  0.86934665  0.47930686     0.30800
H1624       H  0.25190138  0.76088658  0.45650854     0.31000
N1625       N  0.01139425  0.63272202  0.23162506    -0.36600
N1626       N  0.92592279  0.64166597  0.26987288    -0.57200
N1627       N  0.01032747  0.65026776  0.31033827    -0.36600
N1628       N  0.09608081  0.64126688  0.27005246    -0.57200
C1629       C  0.96761534  0.62073968  0.21892805     0.27000
C1630       C  0.05535754  0.62075997  0.21915668     0.27000
C1631       C  0.96568531  0.64473333  0.32706358     0.27000
C1632       C  0.05445027  0.64436007  0.32729773     0.27000
C1633       C  0.89675338  0.64627158  0.24586345     0.35600
C1634       C  0.89495490  0.65311490  0.28980679     0.35600
C1635       C  0.12547738  0.64676984  0.24602762     0.35600
C1636       C  0.12627888  0.65280500  0.29031102     0.35600
C1637       C  0.98412458  0.59957176  0.19898348    -0.21900
C1638       C  0.03955025  0.59965753  0.19912543    -0.21900
C1639       C  0.98169224  0.63564234  0.35498410    -0.21900
C1640       C  0.03749639  0.63537718  0.35514412    -0.21900
C1641       C  0.84614163  0.66029453  0.25044993    -0.23000
C1642       C  0.84485927  0.66451467  0.27866063    -0.22900
C1643       C  0.17543762  0.66172016  0.25090711    -0.23000
C1644       C  0.17631761  0.66505222  0.27937935    -0.22900
C1645       C  0.91527464  0.63503664  0.22090713    -0.18300
C1646       C  0.10739512  0.63551143  0.22086792    -0.18300
C1647       C  0.10958536  0.64945067  0.31869320    -0.18300
C1648       C  0.91095658  0.65040913  0.31816118    -0.18300
H1649       H  0.95975662  0.58695375  0.18444977     0.14600
H1650       H  0.06499429  0.58768349  0.18461641     0.14600
H1651       H  0.95586677  0.63025019  0.37345305     0.14600
H1652       H  0.06264057  0.62976893  0.37381850     0.14600
H1653       H  0.81342576  0.66593303  0.23534317     0.12900
H1654       H  0.81097516  0.67431357  0.28975946     0.12900
H1655       H  0.20806451  0.66842057  0.23585489     0.12900
H1656       H  0.20967358  0.67523266  0.29071312     0.12900
H1657       H  0.01133025  0.65410483  0.24320631     0.26200
H1658       H  0.01078033  0.66151606  0.28918196     0.26200
N1659       N  0.97730875  0.85518446  0.23708729    -0.36600
N1660       N  0.90221275  0.87449512  0.27796289    -0.57200
N1661       N  0.99195015  0.86166704  0.31650478    -0.36600
N1662       N  0.06625500  0.84214930  0.27675620    -0.57200
C1663       C  0.93807446  0.87305361  0.22109277     0.27000
C1664       C  0.02178117  0.85529366  0.22058045     0.27000
C1665       C  0.95419312  0.87748591  0.33075795     0.27000
C1666       C  0.03937641  0.86413109  0.33015604     0.27000
C1667       C  0.86692660  0.87031931  0.25727792     0.35600
C1668       C  0.87447740  0.86802929  0.30235840     0.35600
C1669       C  0.08681204  0.82625426  0.25569305     0.35600
C1670       C  0.09511753  0.83075329  0.30026586     0.35600
C1671       C  0.95845597  0.88540175  0.19435302    -0.21900
C1672       C  0.01144963  0.87458728  0.19416689    -0.21900
C1673       C  0.97786805  0.89145463  0.35311616    -0.21900
C1674       C  0.03192993  0.88330315  0.35261888    -0.21900
C1675       C  0.81531617  0.86310330  0.26829908    -0.23000
C1676       C  0.82050036  0.86052293  0.29729327    -0.22900
C1677       C  0.13025871  0.80468062  0.26563276    -0.23000
C1678       C  0.13548437  0.80749686  0.29416240    -0.22900
C1679       C  0.88273151  0.87333359  0.22891746    -0.18300
C1680       C  0.06842014  0.83418650  0.22754462    -0.18300
C1681       C  0.08554688  0.84346635  0.32619098    -0.18300
C1682       C  0.89857616  0.87069175  0.32849145    -0.18300
H1683       H  0.93733813  0.89955936  0.17634192     0.14600
H1684       H  0.03851009  0.87907679  0.17614391     0.14600
H1685       H  0.95748656  0.90343084  0.36949133     0.14600
H1686       H  0.06120559  0.88833312  0.36847645     0.14600
H1687       H  0.77832472  0.85943116  0.25683358     0.12900
H1688       H  0.78833870  0.85456336  0.31272589     0.12900
H1689       H  0.15570381  0.78905711  0.25357856     0.12900
H1690       H  0.16563207  0.79443495  0.30855760     0.12900
H1691       H  0.97140782  0.83871548  0.25630009     0.26200
H1692       H  0.98314725  0.84353177  0.30263321     0.26200
N1693       N  0.49224330  0.91529626  0.30827376    -0.36600
N1694       N  0.40700250  0.92497189  0.26590201    -0.57200
N1695       N  0.49491410  0.92955171  0.22605081    -0.36600
N1696       N  0.57960436  0.91967877  0.26803567    -0.57200
C1697       C  0.44857297  0.92303662  0.32329176     0.27000
C1698       C  0.53648209  0.91880152  0.32432278     0.27000
C1699       C  0.45155465  0.93815582  0.20913822     0.27000
C1700       C  0.53992345  0.93676496  0.21007246     0.27000
C1701       C  0.37820400  0.91145725  0.28896835     0.35600
C1702       C  0.37994183  0.91609344  0.24337495     0.35600
C1703       C  0.60621868  0.90412547  0.29110269     0.35600
C1704       C  0.60824750  0.91236575  0.24567468     0.35600
C1705       C  0.46551637  0.93242784  0.34898275    -0.21900
C1706       C  0.52107419  0.92980911  0.34958771    -0.21900
C1707       C  0.46926193  0.95212721  0.18225141    -0.21900
C1708       C  0.52485920  0.95104290  0.18279850    -0.21900
C1709       C  0.33126174  0.89502189  0.28114387    -0.23000
C1710       C  0.33250098  0.89777138  0.25202084    -0.22900
C1711       C  0.65332315  0.88784364  0.28355533    -0.23000
C1712       C  0.65457928  0.89308073  0.25443865    -0.22900
C1713       C  0.39457778  0.91464963  0.31668597    -0.18300
C1714       C  0.58855557  0.90630113  0.31861447    -0.18300
C1715       C  0.59226315  0.92325003  0.21765683    -0.18300
C1716       C  0.39841818  0.92504958  0.21534216    -0.18300
H1717       H  0.44050572  0.93835820  0.36631351     0.14600
H1718       H  0.54681517  0.93350074  0.36730979     0.14600
H1719       H  0.44464439  0.95912809  0.16351615     0.14600
H1720       H  0.55086049  0.95698534  0.16446734     0.14600
H1721       H  0.30035763  0.88174951  0.29497967     0.12900
H1722       H  0.30238332  0.88736393  0.23880211     0.12900
H1723       H  0.68320244  0.87365171  0.29750536     0.12900
H1724       H  0.68545673  0.88353776  0.24125388     0.12900
H1725       H  0.49111428  0.90147901  0.29097309     0.26200
H1726       H  0.49361118  0.91241860  0.24505764     0.26200
N1727       N  0.49319667  0.60734013  0.23370747    -0.36600
N1728       N  0.41367925  0.60089520  0.27822985    -0.57200
N1729       N  0.50378053  0.60247021  0.31584354    -0.36600
N1730       N  0.58274270  0.60886135  0.27133879    -0.57200
C1731       C  0.44682535  0.61625280  0.21936046     0.27000
C1732       C  0.53481131  0.61728513  0.21584950     0.27000
C1733       C  0.46057558  0.60814170  0.33199194     0.27000
C1734       C  0.54779451  0.61476632  0.32837825     0.27000
C1735       C  0.38117566  0.59397935  0.25711031     0.35600
C1736       C  0.38753072  0.58909623  0.30250839     0.35600
C1737       C  0.61130471  0.60305168  0.24848560     0.35600
C1738       C  0.61740473  0.60466854  0.29327312     0.35600
C1739       C  0.45941453  0.63291713  0.19224286    -0.21900
C1740       C  0.51506111  0.63369508  0.19010109    -0.21900
C1741       C  0.47711152  0.62461237  0.35468532    -0.21900
C1742       C  0.53200577  0.62875073  0.35245157    -0.21900
C1743       C  0.33311893  0.57819723  0.26793663    -0.23000
C1744       C  0.33733743  0.57487652  0.29701874    -0.22900
C1745       C  0.66512923  0.59575426  0.25574815    -0.23000
C1746       C  0.66912844  0.59722146  0.28434246    -0.22900
C1747       C  0.39452448  0.60380607  0.22847139    -0.18300
C1748       C  0.58926507  0.60722815  0.22110116    -0.18300
C1749       C  0.60223721  0.60964359  0.32067100    -0.18300
C1750       C  0.40799087  0.59442085  0.32892317    -0.18300
H1751       H  0.43165196  0.64182875  0.17515973     0.14600
H1752       H  0.53826388  0.64332660  0.17127034     0.14600
H1753       H  0.45266839  0.63183957  0.37177018     0.14600
H1754       H  0.55713297  0.63965300  0.36767683     0.14600
H1755       H  0.29887868  0.56998490  0.25620073     0.12900
H1756       H  0.30687781  0.56400496  0.31225863     0.12900
H1757       H  0.69812389  0.59080440  0.24185803     0.12900
H1758       H  0.70563561  0.59339788  0.29703146     0.12900
H1759       H  0.49616669  0.58964724  0.25246408     0.26200
H1760       H  0.50418080  0.58601205  0.30013036     0.26200
C1761       C  0.32272407  0.92755993  0.14677978    -0.05800
C1762       C  0.34553818  0.89785885  0.13615055     0.00100
C1763       C  0.37976733  0.87431428  0.15430786    -0.08400
C1764       C  0.39159389  0.88280171  0.18133696    -0.05800
C1765       C  0.36903977  0.91265786  0.19140999     0.00100
C1766       C  0.33084655  0.93390829  0.17462385    -0.08300
C1767       C  0.29472357  0.96160123  0.18526674     0.62000
H1768       H  0.29542922  0.94532563  0.13366722     0.12700
H1769       H  0.42077975  0.86693956  0.19469775     0.12700
C1770       C  0.40378897  0.84027283  0.14596528     0.62300
F1771       F  0.30772639  0.96767023  0.21221681    -0.22900
F1772       F  0.24136270  0.94989668  0.18553289    -0.20200
F1773       F  0.29805193  0.99353134  0.16720671    -0.19900
F1774       F  0.43824509  0.84873986  0.12310337    -0.20000
F1775       F  0.36244957  0.81802278  0.13926736    -0.20300
F1776       F  0.43359988  0.82125403  0.16768366    -0.22900
C1777       C  0.31647111  0.91894993  0.38327324    -0.05800
C1778       C  0.32373703  0.88355469  0.39728028     0.00100
C1779       C  0.34259383  0.85686170  0.38132817    -0.08400
C1780       C  0.36048565  0.86783593  0.35348306    -0.05800
C1781       C  0.35813202  0.90369978  0.34094539     0.00100
C1782       C  0.33296669  0.92938374  0.35518497    -0.08300
C1783       C  0.32449063  0.96759868  0.34065038     0.62000
H1784       H  0.29879895  0.93891967  0.39463657     0.12700
H1785       H  0.37971220  0.84885042  0.34167449     0.12700
C1786       C  0.34523091  0.81723361  0.39315472     0.62300
F1787       F  0.29345380  0.96698678  0.31659752    -0.22900
F1788       F  0.37378864  0.98388110  0.33296490    -0.20200
F1789       F  0.29785235  0.98835599  0.35795099    -0.19900
F1790       F  0.29368048  0.80485294  0.40111813    -0.20000
F1791       F  0.37993859  0.81190589  0.41612422    -0.20300
F1792       F  0.36418336  0.79680026  0.37336338    -0.22900
C1793       C  0.14833179  0.84479091  0.19707124    -0.05800
C1794       C  0.10073880  0.82509371  0.20343075     0.00100
C1795       C  0.07599327  0.80777211  0.18224904    -0.08400
C1796       C  0.09376685  0.81638067  0.15417929    -0.05800
C1797       C  0.13803474  0.83961685  0.14711997     0.00100
C1798       C  0.16843012  0.85124032  0.16934354    -0.08300
C1799       C  0.22256153  0.86935864  0.16403250     0.62000
H1800       H  0.16743366  0.85733103  0.21359963     0.12700
H1801       H  0.07265829  0.80492409  0.13765491     0.12700
C1802       C  0.02961451  0.78127115  0.18830683     0.62300
F1803       F  0.21506350  0.90224609  0.14772966    -0.22900
F1804       F  0.25560626  0.84786608  0.15027322    -0.20200
F1805       F  0.24807151  0.87462786  0.18892051    -0.19900
F1806       F  0.98266133  0.79558443  0.17545642    -0.20000
F1807       F  0.02013140  0.77207092  0.21696435    -0.20300
F1808       F  0.04247134  0.75033863  0.17741154    -0.22900
C1809       C  0.09997104  0.80965826  0.37343625    -0.05800
C1810       C  0.12085525  0.83483537  0.35135539     0.00100
C1811       C  0.16041342  0.85997292  0.35744748    -0.08400
C1812       C  0.17570521  0.86039468  0.38569890    -0.05800
C1813       C  0.15141767  0.83727229  0.40776106     0.00100
C1814       C  0.11445883  0.81068299  0.40180153    -0.08300
C1815       C  0.08843131  0.78516993  0.42555218     0.62000
H1816       H  0.06821520  0.79150044  0.36855079     0.12700
H1817       H  0.20460505  0.88014583  0.39097264     0.12700
C1818       C  0.18190288  0.88853135  0.33449080     0.62300
F1819       F  0.05583153  0.75986856  0.41538364    -0.22900
F1820       F  0.05687035  0.80432317  0.44202732    -0.20200
F1821       F  0.12828767  0.76729047  0.44234230    -0.19900
F1822       F  0.14048657  0.91139681  0.32411099    -0.20000
F1823       F  0.20317820  0.87250895  0.31271107    -0.20300
F1824       F  0.22222224  0.90892032  0.34451485    -0.22900
C1825       C  0.61169607  0.86021015  0.35845613    -0.05800
C1826       C  0.62339975  0.89392745  0.34307617     0.00100
C1827       C  0.65811300  0.91801656  0.35433979    -0.08400
C1828       C  0.67634193  0.90874770  0.38216038    -0.05800
C1829       C  0.66027095  0.87643910  0.39881881     0.00100
C1830       C  0.62991115  0.85080636  0.38638241    -0.08300
C1831       C  0.61470007  0.81462659  0.40271224     0.62000
H1832       H  0.58498745  0.84234589  0.34898993     0.12700
H1833       H  0.70084423  0.92772765  0.39169177     0.12700
C1834       C  0.67202555  0.95431314  0.33762089     0.62300
F1835       F  0.58251198  0.79475048  0.38690389    -0.22900
F1836       F  0.58628728  0.81914332  0.42691491    -0.20200
F1837       F  0.66147331  0.79533436  0.40999540    -0.19900
F1838       F  0.62536416  0.97442877  0.33230531    -0.20000
F1839       F  0.69562227  0.94973794  0.31215387    -0.20300
F1840       F  0.70784513  0.97347673  0.35201270    -0.22900
C1841       C  0.66819658  0.93673833  0.14998312    -0.05800
C1842       C  0.64922007  0.90692524  0.13787320     0.00100
C1843       C  0.62110723  0.87880547  0.15554646    -0.08400
C1844       C  0.60993184  0.88331102  0.18348225    -0.05800
C1845       C  0.62590873  0.91405887  0.19436988     0.00100
C1846       C  0.65919706  0.93978458  0.17850389    -0.08300
C1847       C  0.68532738  0.96959008  0.19211727     0.62000
H1848       H  0.68926605  0.95817541  0.13691132     0.12700
H1849       H  0.58447801  0.86415286  0.19664646     0.12700
C1850       C  0.60085297  0.84453405  0.14561553     0.62300
F1851       F  0.71952641  0.95458837  0.21352614    -0.22900
F1852       F  0.64636294  0.98938237  0.20361853    -0.20200
F1853       F  0.71562217  0.99264723  0.17295496    -0.19900
F1854       F  0.64409145  0.82663274  0.13566236    -0.20000
F1855       F  0.56209829  0.85271507  0.12474925    -0.20300
F1856       F  0.57677473  0.82121723  0.16717022    -0.22900
C1857       C  0.82083729  0.87917672  0.39468985    -0.05800
C1858       C  0.84103717  0.84926567  0.41239637     0.00100
C1859       C  0.87698071  0.82553639  0.40209450    -0.08400
C1860       C  0.88760206  0.83050232  0.37301182    -0.05800
C1861       C  0.86931843  0.86137891  0.35533746     0.00100
C1862       C  0.83767415  0.88701663  0.36657162    -0.08300
C1863       C  0.82710720  0.92384989  0.35008075     0.62000
H1864       H  0.79528201  0.89790334  0.40378165     0.12700
H1865       H  0.91578161  0.81287054  0.36441956     0.12700
C1866       C  0.90782490  0.79816608  0.42233049     0.62300
F1867       F  0.80100895  0.94589796  0.36647061    -0.22900
F1868       F  0.79534992  0.92081400  0.32675958    -0.20200
F1869       F  0.87573176  0.94029743  0.34122172    -0.19900
F1870       F  0.87168429  0.77466305  0.43750018    -0.20000
F1871       F  0.93712352  0.81557300  0.44102133    -0.20300
F1872       F  0.94416984  0.77897121  0.40838165    -0.22900
C1873       C  0.83622857  0.91046364  0.19043884    -0.05800
C1874       C  0.84246969  0.87630281  0.20588788     0.00100
C1875       C  0.82729574  0.84564426  0.19386368    -0.08400
C1876       C  0.81140208  0.85023309  0.16548713    -0.05800
C1877       C  0.81420000  0.88391662  0.14838005     0.00100
C1878       C  0.82604177  0.91492839  0.16123870    -0.08300
C1879       C  0.83355059  0.95203580  0.14442616     0.62000
H1880       H  0.84803272  0.93325182  0.20055933     0.12700
H1881       H  0.79978447  0.82686760  0.15608972     0.12700
C1882       C  0.83058995  0.80808335  0.21042637     0.62300
F1883       F  0.85076545  0.97685713  0.16118105    -0.22900
F1884       F  0.78499078  0.96401518  0.13240669    -0.20200
F1885       F  0.87226165  0.95098938  0.12355752    -0.19900
F1886       F  0.79760746  0.80562907  0.23398408    -0.20000
F1887       F  0.88350316  0.80033696  0.21887282    -0.20300
F1888       F  0.81350393  0.78219402  0.19452179    -0.22900
C1889       C  0.64960704  0.57530554  0.15603962    -0.05800
C1890       C  0.68286111  0.60453963  0.14602854     0.00100
C1891       C  0.68995341  0.63276319  0.16256446    -0.08400
C1892       C  0.66090965  0.63146026  0.18782209    -0.05800
C1893       C  0.62447138  0.60367403  0.19662126     0.00100
C1894       C  0.61849040  0.57498654  0.18069541    -0.08300
C1895       C  0.57641505  0.54571274  0.18828169     0.62000
H1896       H  0.64401969  0.55447710  0.14284491     0.12700
H1897       H  0.66465234  0.65334339  0.20018553     0.12700
C1898       C  0.72563846  0.66549942  0.15458517     0.62300
F1899       F  0.57035542  0.02164208  0.16961247    -0.22900
F1900       F  0.51843893  0.06739974  0.17709449    -0.20200
F1901       F  0.56335599  0.03551213  0.21353863    -0.19900
F1902       F  0.69324901  0.69557441  0.14878980    -0.20000
F1903       F  0.75782903  0.66310341  0.13149058    -0.20300
F1904       F  0.75949343  0.66972476  0.17700560    -0.22900
C1905       C  0.66465622  0.58903376  0.39134393    -0.05800
C1906       C  0.66959567  0.62422066  0.39788556     0.00100
C1907       C  0.66723622  0.65358550  0.37523773    -0.08400
C1908       C  0.65754247  0.64610888  0.34769926    -0.05800
C1909       C  0.64325660  0.61165891  0.34283910     0.00100
C1910       C  0.64998045  0.58233434  0.36435164    -0.08300
C1911       C  0.63639370  0.54443594  0.35946410     0.62000
H1912       H  0.66791622  0.56646200  0.40800386     0.12700
H1913       H  0.65200281  0.66777706  0.33043487     0.12700
C1914       C  0.67049911  0.69275136  0.37943349     0.62300
F1915       F  0.58069845  0.54045700  0.35731358    -0.22900
F1916       F  0.65485929  0.51929440  0.38135816    -0.20200
F1917       F  0.66065513  0.53753968  0.33476142    -0.19900
F1918       F  0.71955809  0.69936461  0.39127688    -0.20000
F1919       F  0.62861511  0.70088913  0.39668918    -0.20300
F1920       F  0.66667733  0.71587982  0.35422114    -0.22900
C1921       C  0.86158028  0.60834328  0.18700588    -0.05800
C1922       C  0.88289261  0.63973400  0.19481225     0.00100
C1923       C  0.89270045  0.66977495  0.17412436    -0.08400
C1924       C  0.88433612  0.66630975  0.14567885    -0.05800
C1925       C  0.87071222  0.63307445  0.13728416     0.00100
C1926       C  0.86139748  0.60287987  0.15861964    -0.08300
C1927       C  0.85726638  0.56429452  0.15272155     0.62000
H1928       H  0.85492271  0.58602585  0.20366069     0.12700
H1929       H  0.89079178  0.68939632  0.12973375     0.12700
C1930       C  0.91356485  0.70491244  0.18218450     0.62300
F1931       F  0.85972026  0.53990157  0.17727570    -0.22900
F1932       F  0.90003073  0.55667799  0.13576521    -0.20200
F1933       F  0.80864407  0.55874773  0.13990647    -0.19900
F1934       F  0.96373322  0.69991036  0.19511552    -0.20000
F1935       F  0.87743159  0.71724872  0.20065767    -0.20300
F1936       F  0.91921400  0.73110517  0.15887279    -0.22900
C1937       C  0.81768542  0.62624375  0.38042425    -0.05800
C1938       C  0.82357407  0.65726811  0.39335135     0.00100
C1939       C  0.84761354  0.68836403  0.37804747    -0.08400
C1940       C  0.86972903  0.68618472  0.35130905    -0.05800
C1941       C  0.86990900  0.65390419  0.34017659     0.00100
C1942       C  0.84114475  0.62386091  0.35399336    -0.08300
C1943       C  0.83846683  0.58892224  0.34172604     0.62000
H1944       H  0.79773816  0.60302414  0.39210845     0.12700
H1945       H  0.89171719  0.70872254  0.33990945     0.12700
C1946       C  0.85531783  0.72246856  0.39082046     0.62300
F1947       F  0.89027343  0.57547689  0.33952267    -0.22900
F1948       F  0.81501499  0.59482591  0.31520633    -0.20200
F1949       F  0.80771260  0.56322071  0.35840897    -0.19900
F1950       F  0.88286886  0.71476719  0.41615647    -0.20000
F1951       F  0.80562637  0.73754488  0.39530532    -0.20300
F1952       F  0.88505168  0.74760562  0.37317324    -0.22900
C1953       C  0.34206561  0.61326504  0.39470766    -0.05800
C1954       C  0.36655639  0.58621749  0.41398706     0.00100
C1955       C  0.39273731  0.55725337  0.40369510    -0.08400
C1956       C  0.39491677  0.55723091  0.37430683    -0.05800
C1957       C  0.37611061  0.58645686  0.35525409     0.00100
C1958       C  0.34710330  0.61422720  0.36538917    -0.08300
C1959       C  0.32612774  0.64624327  0.34533362     0.62000
H1960       H  0.32096453  0.63475751  0.40279963     0.12700
H1961       H  0.41776222  0.53667933  0.36582196     0.12700
C1962       C  0.42286035  0.52850474  0.42315035     0.62300
F1963       F  0.29914784  0.67039700  0.35955595    -0.22900
F1964       F  0.29040009  0.63458798  0.32628161    -0.20200
F1965       F  0.36878019  0.66428224  0.33062878    -0.19900
F1966       F  0.38630371  0.50730000  0.44000045    -0.20000
F1967       F  0.45861767  0.54440300  0.43998031    -0.20300
F1968       F  0.45270879  0.50642671  0.40819146    -0.22900
C1969       C  0.33526344  0.56959759  0.16544673    -0.05800
C1970       C  0.31177166  0.60112977  0.15150894     0.00100
C1971       C  0.30755518  0.63169482  0.16576665    -0.08400
C1972       C  0.32819454  0.62954114  0.19324914    -0.05800
C1973       C  0.35508499  0.59895276  0.20614300     0.00100
C1974       C  0.35736258  0.56800731  0.19271817    -0.08300
C1975       C  0.38484657  0.53407104  0.20697349     0.62000
H1976       H  0.33975454  0.54711926  0.15391164     0.12700
H1977       H  0.32822670  0.65326160  0.20370325     0.12700
C1978       C  0.28555052  0.66800535  0.15294300     0.62300
F1979       F  0.38667905  0.50813796  0.18943286    -0.22900
F1980       F  0.35650948  0.52066685  0.23118776    -0.20200
F1981       F  0.43772231  0.54079114  0.21433011    -0.19900
F1982       F  0.26110902  0.66783732  0.12703372    -0.20000
F1983       F  0.32780715  0.69257873  0.14969377    -0.20300
F1984       F  0.24752889  0.67932270  0.17104369    -0.22900
C1985       C  0.19229504  0.61554913  0.38258436    -0.05800
C1986       C  0.19208193  0.64602170  0.39631067     0.00100
C1987       C  0.17668937  0.67959192  0.38123424    -0.08400
C1988       C  0.15562820  0.68065889  0.35380760    -0.05800
C1989       C  0.15054552  0.64941743  0.34133729     0.00100
C1990       C  0.17235347  0.61679464  0.35496652    -0.08300
C1991       C  0.17190398  0.58320237  0.34085815     0.62000
H1992       H  0.20636865  0.59040783  0.39412425     0.12700
H1993       H  0.13902142  0.70531317  0.34268421     0.12700
C1994       C  0.17907601  0.71356473  0.39459945     0.62300
F1995       F  0.19753108  0.55486543  0.35726367    -0.22900
F1996       F  0.19886752  0.58984910  0.31525207    -0.20200
F1997       F  0.11898629  0.57301376  0.33621745    -0.19900
F1998       F  0.23236013  0.72150956  0.40031330    -0.20000
F1999       F  0.14935597  0.70893929  0.41938528    -0.20300
F2000       F  0.15821534  0.74252891  0.37690724    -0.22900
C2001       C  0.17239129  0.61452130  0.15513256    -0.05800
C2002       C  0.14779080  0.64067138  0.13505269     0.00100
C2003       C  0.11769867  0.66853222  0.14471870    -0.08400
C2004       C  0.11602797  0.67005089  0.17392322    -0.05800
C2005       C  0.13731759  0.64246449  0.19378338     0.00100
C2006       C  0.16739987  0.61478757  0.18434214    -0.08300
C2007       C  0.19036863  0.58434015  0.20519120     0.62000
H2008       H  0.19376381  0.59267564  0.14784873     0.12700
H2009       H  0.09070745  0.69007235  0.18156423     0.12700
C2010       C  0.08065172  0.69415838  0.12625931     0.62300
F2011       F  0.22151869  0.56121901  0.19192678    -0.22900
F2012       F  0.14868999  0.56464778  0.21939184    -0.20200
F2013       F  0.22270903  0.59829027  0.22458744    -0.19900
F2014       F  0.07732560  0.68712532  0.09881276    -0.20000
F2015       F  0.09873650  0.72893153  0.12612706    -0.20300
F2016       F  0.02853266  0.69128806  0.13731187    -0.22900
C2017       C  0.54932458  0.77121104  0.50400213     0.02300
C2018       C  0.55182854  0.73408451  0.99795697     0.02200
C2019       C  0.50317670  0.71374128  0.99660136    -0.18300
C2020       C  0.45038578  0.72749133  0.00077899     0.02300
C2021       C  0.44760453  0.76628717  0.50514764     0.02200
C2022       C  0.49674940  0.78583253  0.50695705    -0.18300
H2023       H  0.49400879  0.81318839  0.51139479     0.04300
H2024       H  0.50680698  0.68554897  0.99458844     0.04300
C2025       C  0.94529108  0.97998110  0.54010675     0.02300
C2026       C  0.95000770  0.51635614  0.54340489     0.02200
C2027       C  0.00298998  0.53099851  0.54581705    -0.18300
C2028       C  0.05179756  0.51082760  0.54500620     0.02300
C2029       C  0.04715818  0.97545707  0.53919792     0.02200
C2030       C  0.99428391  0.96046788  0.53791127    -0.18300
H2031       H  0.99116552  0.93266459  0.53458665     0.04300
H2032       H  0.00647407  0.55959032  0.54638517     0.04300
Zr2033     Zr  0.21373549  0.57702560  0.57019011     2.19900
O2034       O  0.20933315  0.52189950  0.60379076    -0.51300
O2035       O  0.15421243  0.60724035  0.59941838    -0.74500
O2036       O  0.26630422  0.58193556  0.61312046    -0.81300
O2037       O  0.11360785  0.54701598  0.51561110    -0.83100
O2038       O  0.33050234  0.62572991  0.60319328    -0.78700
O2039       O  0.13229352  0.53888451  0.56273053    -0.90300
O2040       O  0.17249523  0.66632990  0.58738422    -0.76300
O2041       O  0.24903917  0.63633650  0.56800604    -0.85800
O2042       O  0.15857727  0.61470268  0.53759782    -0.85500
O2043       O  0.30873558  0.57704120  0.55631971    -0.72200
O2044       O  0.22741764  0.55555147  0.52604302    -0.84400
Zr2045     Zr  0.30019467  0.65131948  0.97736370     2.26400
Zr2046     Zr  0.34187699  0.63769839  0.55292419     2.06300
Zr2047     Zr  0.17264160  0.59072277  0.99352493     2.10000
Zr2048     Zr  0.19343534  0.67377474  0.53667318     1.78800
O2049       O  0.15695061  0.54189759  0.96610691    -0.93200
O2050       O  0.23291805  0.72569246  0.55350786    -0.41000
O2051       O  0.20531185  0.65110093  0.99129734    -0.77600
O2052       O  0.28666850  0.67665464  0.52085164    -0.96300
O2053       O  0.35708041  0.61651131  0.50910928    -0.89600
O2054       O  0.26501220  0.59187398  0.97962899    -0.92400
C2055       C  0.15715795  0.63930396  0.60528239     1.01300
C2056       C  0.10387595  0.53240656  0.54106846     1.14200
C2057       C  0.30284735  0.60348906  0.62030625     1.05000
O2058       O  0.38353408  0.67798016  0.58236049    -0.94600
O2059       O  0.40041970  0.68624675  0.52995004    -0.90300
O2060       O  0.37712357  0.69248098  0.98463438    -0.83500
C2061       C  0.40435754  0.70095286  0.00583137     1.11700
O2062       O  0.35236481  0.50517137  0.54323800    -0.96600
Zr2063     Zr  0.32122493  0.55522054  0.01214501     1.88900
O2064       O  0.35874499  0.61780610  0.94926057    -0.73200
O2065       O  0.42328911  0.60093695  0.55981286    -0.52500
O2066       O  0.41849119  0.54641976  0.50968677    -0.97200
O2067       O  0.27635719  0.50240325  0.99994460    -0.54400
O2068       O  0.34681600  0.55821538  0.96247137    -0.73700
C2069       C  0.35767974  0.58538345  0.94381414     0.98600
O2070       O  0.31060058  0.70008676  0.93796679    -0.62600
O2071       O  0.08294853  0.61662299  0.98345611    -0.57400
O2072       O  0.24328607  0.65723118  0.93565698    -0.94000
O2073       O  0.17707663  0.61449562  0.94349781    -0.92500
O2074       O  0.09568537  0.68352814  0.53880021    -0.92800
O2075       O  0.15960886  0.72413598  0.50364335    -0.91600
C2076       C  0.20410476  0.63867825  0.92752495     1.17500
H2077       H  0.12072269  0.61301617  0.54304431     0.33400
H2078       H  0.30008962  0.70082237  0.51964952     0.44200
H2079       H  0.26267029  0.58421767  0.96130699     0.37800
H2080       H  0.32893572  0.56194377  0.57068367     0.34300
H2081       H  0.26578866  0.71670617  0.56415279     0.26000
H2082       H  0.45281252  0.61665634  0.55098891     0.32000
H2083       H  0.42087352  0.52249182  0.99892150     0.37900
H2084       H  0.08089648  0.67623352  0.52122127     0.32300
H2085       H  0.08999105  0.64233303  0.97677074     0.31200
H2086       H  0.12953979  0.55106024  0.95172419     0.32900
H2087       H  0.24041666  0.51075121  0.99250173     0.31900
H2088       H  0.15424725  0.71466162  0.48557255     0.35900
H2089       H  0.32875650  0.72057882  0.94487835     0.28600
H2090       H  0.19155368  0.52877721  0.62079689     0.32800
H2091       H  0.37780714  0.51433673  0.55659168     0.35700
H2092       H  0.05881992  0.60469160  0.48563413     0.28300
H2093       H  0.33780958  0.69128032  0.92534642     0.41200
H2094       H  0.36114142  0.69997656  0.57935703     0.31200
H2095       H  0.24664523  0.74076155  0.53634396     0.38800
H2096       H  0.26840600  0.48739314  0.01817163     0.30700
H2097       H  0.43061183  0.59863980  0.58035869     0.30800
H2098       H  0.24732838  0.51631103  0.60964601     0.31000
Zr2099     Zr  0.72667033  0.67896726  0.97587666     2.17500
O2100       O  0.73481131  0.73979015  0.95097481    -0.51300
O2101       O  0.68338466  0.65786326  0.93610182    -0.74500
O2102       O  0.78517515  0.67948579  0.93433077    -0.81300
O2103       O  0.61131801  0.69668254  0.52607658    -0.83100
O2104       O  0.83477829  0.62811127  0.94141548    -0.78700
O2105       O  0.63909442  0.71230954  0.98172083    -0.90300
O2106       O  0.68127311  0.59775697  0.94768068    -0.76300
O2107       O  0.75290516  0.61863565  0.97374836    -0.85800
O2108       O  0.66306527  0.64009926  0.50125775    -0.85500
O2109       O  0.81927028  0.67040380  0.99328202    -0.72200
O2110       O  0.73987541  0.69230367  0.52168517    -0.84400
Zr2111     Zr  0.78904346  0.58359519  0.56351129     2.26400
Zr2112     Zr  0.84278711  0.60870604  0.99165526     2.06300
Zr2113     Zr  0.67525482  0.65297802  0.54821916     2.10000
Zr2114     Zr  0.69028693  0.58078269  0.49698683     1.78800
O2115       O  0.66471692  0.70338902  0.57440282    -0.93200
O2116       O  0.71775700  0.52790103  0.97979062    -0.41000
O2117       O  0.69760804  0.59142917  0.54534502    -0.77600
O2118       O  0.78003571  0.56908861  0.51635860    -0.96300
O2119       O  0.85534407  0.62034862  0.53683364    -0.89600
O2120       O  0.76543402  0.64427843  0.56487485    -0.92400
C2121       C  0.67859375  0.62641336  0.92940334     1.01300
C2122       C  0.60435448  0.71352188  0.00217202     1.14200
C2123       C  0.81537511  0.65550443  0.92561678     1.05000
O2124       O  0.87376780  0.56246868  0.96471213    -0.94600
O2125       O  0.90156759  0.56141560  0.51338290    -0.90300
O2126       O  0.86838349  0.54460816  0.55774849    -0.83500
C2127       C  0.90310976  0.54198881  0.53786293     1.11700
O2128       O  0.87449518  0.73537123  0.51573241    -0.96600
Zr2129     Zr  0.83169851  0.68066612  0.53936815     1.88900
O2130       O  0.84570947  0.60345885  0.59902325    -0.73200
O2131       O  0.92802483  0.64183300  0.98355757    -0.52500
O2132       O  0.93029680  0.67511287  0.53790897    -0.97200
O2133       O  0.81038727  0.73005385  0.56463915    -0.54400
O2134       O  0.85708391  0.66340109  0.58911304    -0.73700
C2135       C  0.85820956  0.63369298  0.60623601     0.98600
O2136       O  0.77726433  0.52592761  0.59335564    -0.62600
O2137       O  0.58624024  0.62654149  0.56038282    -0.57400
O2138       O  0.73476821  0.58696415  0.60646904    -0.94000
O2139       O  0.67396845  0.63271664  0.59830135    -0.92500
O2140       O  0.59384571  0.57866862  0.48561628    -0.92800
O2141       O  0.63441751  0.53230661  0.52098206    -0.91600
C2142       C  0.69899901  0.60824448  0.61462415     1.17500
H2143       H  0.62595185  0.64458163  0.99600110     0.33400
H2144       H  0.79054108  0.54450899  0.51600009     0.44200
H2145       H  0.76510419  0.65029693  0.58362439     0.37800
H2146       H  0.84327685  0.68592834  0.98103986     0.34300
H2147       H  0.69818172  0.52996004  0.96156426     0.26000
H2148       H  0.95665305  0.62389574  0.98937465     0.32000
H2149       H  0.94356212  0.68588275  0.55435966     0.37900
H2150       H  0.58683076  0.56598481  0.97437532     0.32300
H2151       H  0.56817389  0.62564583  0.54198897     0.31200
H2152       H  0.68062327  0.72419806  0.56206045     0.32900
H2153       H  0.84281423  0.73274836  0.57643628     0.31900
H2154       H  0.62372207  0.54024304  0.53905470     0.35900
H2155       H  0.73787039  0.52051529  0.59333412     0.28600
H2156       H  0.71933215  0.73835198  0.93207850     0.32800
H2157       H  0.89548550  0.72830533  0.49976091     0.35700
H2158       H  0.59363373  0.60113916  0.56786704     0.28300
H2159       H  0.79502132  0.50753010  0.58375034     0.41200
H2160       H  0.84222018  0.55736132  0.95304431     0.31200
H2161       H  0.75615521  0.53245538  0.97420060     0.38800
H2162       H  0.78235982  0.71959831  0.57828200     0.30700
H2163       H  0.93155980  0.64711883  0.96274260     0.30800
H2164       H  0.77421701  0.74357332  0.94749068     0.31000
Zr2165     Zr  0.76176226  0.92899750  0.55592341     2.17500
O2166       O  0.73174437  0.99068950  0.54914780    -0.51300
O2167       O  0.79510244  0.91528787  0.60315208    -0.74500
O2168       O  0.70129695  0.92843588  0.59618651    -0.81300
O2169       O  0.89442489  0.94188369  0.51507989    -0.83100
O2170       O  0.64678263  0.87952371  0.59673333    -0.78700
O2171       O  0.85073780  0.96217924  0.55152951    -0.90300
O2172       O  0.80412658  0.85514073  0.60811448    -0.76300
O2173       O  0.73228871  0.86950799  0.57229069    -0.85800
O2174       O  0.83126329  0.88866674  0.54669195    -0.85500
O2175       O  0.67519435  0.91830129  0.53452800    -0.72200
O2176       O  0.76659075  0.93900913  0.50568336    -0.84400
Zr2177     Zr  0.72242170  0.82646348  0.99150924     2.26400
Zr2178     Zr  0.64817754  0.85744048  0.55113621     2.06300
Zr2179     Zr  0.83592152  0.89475789  0.99757828     2.10000
Zr2180     Zr  0.80096164  0.82975962  0.56396669     1.78800
O2181       O  0.86020160  0.94151218  0.95892702    -0.93200
O2182       O  0.75592533  0.77909346  0.59228662    -0.41000
O2183       O  0.81045335  0.83806087  0.51351512    -0.77600
O2184       O  0.71745487  0.81648217  0.54110674    -0.96300
O2185       O  0.65445667  0.86575536  0.50113494    -0.89600
O2186       O  0.75197157  0.88596290  0.97528661    -0.92400
C2187       C  0.80238335  0.88491608  0.61825886     1.01300
C2188       C  0.89268202  0.96107092  0.53514895     1.14200
C2189       C  0.66741352  0.90509769  0.60851429     1.05000
O2190       O  0.61270485  0.80946076  0.58604800    -0.94600
O2191       O  0.59337104  0.81388611  0.52904486    -0.90300
O2192       O  0.63905656  0.79052521  0.99517527    -0.83500
C2193       C  0.59805782  0.79363831  0.50950812     1.11700
O2194       O  0.63449264  0.98186246  0.48437093    -0.96600
Zr2195     Zr  0.68134517  0.92471049  0.98366800     1.88900
O2196       O  0.68502070  0.84169028  0.94440671    -0.73200
O2197       O  0.56176156  0.88889571  0.54867549    -0.52500
O2198       O  0.58262500  0.92021623  0.48314011    -0.97200
O2199       O  0.71988998  0.96873422  0.94656368    -0.54400
O2200       O  0.66611119  0.90120397  0.93996238    -0.73700
C2201       C  0.67008260  0.87148060  0.93004239     0.98600
O2202       O  0.75726898  0.76588096  0.99796724    -0.62600
O2203       O  0.92598432  0.86808209  0.99960179    -0.57400
O2204       O  0.78325991  0.82413654  0.95258925    -0.94000
O2205       O  0.84878700  0.86669486  0.95570538    -0.92500
O2206       O  0.88048291  0.80853571  0.59207418    -0.92800
O2207       O  0.87426022  0.79553205  0.54654933    -0.91600
C2208       C  0.82380844  0.84359848  0.94308098     1.17500
H2209       H  0.86528609  0.89296252  0.55573520     0.33400
H2210       H  0.70567072  0.79204065  0.54678646     0.44200
H2211       H  0.75822473  0.89053659  0.95523495     0.37800
H2212       H  0.64840724  0.93467944  0.53999633     0.34300
H2213       H  0.77988186  0.77251427  0.60884151     0.26000
H2214       H  0.53779184  0.87464135  0.53789245     0.32000
H2215       H  0.57438503  0.90103934  0.97045255     0.37900
H2216       H  0.86721972  0.80068606  0.61154325     0.32300
H2217       H  0.94930761  0.88675999  0.98886719     0.31200
H2218       H  0.84808862  0.96413697  0.96517241     0.32900
H2219       H  0.69411410  0.96993046  0.93055102     0.31900
H2220       H  0.90141559  0.81351115  0.53823083     0.35900
H2221       H  0.79508958  0.76850465  0.99090012     0.28600
H2222       H  0.69510990  0.98949484  0.55779259     0.32800
H2223       H  0.61640724  0.98701172  0.46572425     0.35700
H2224       H  0.94110244  0.87465658  0.51670824     0.28300
H2225       H  0.76143796  0.76016242  0.01867833     0.41200
H2226       H  0.62785457  0.78702850  0.58080877     0.31200
H2227       H  0.72361555  0.78964649  0.60021455     0.38800
H2228       H  0.75263155  0.95716027  0.94001188     0.30700
H2229       H  0.54736722  0.88460872  0.56821803     0.30800
H2230       H  0.72486073  0.99581272  0.52859738     0.31000
Zr2231     Zr  0.26719221  0.81848425  0.98583989     2.17500
O2232       O  0.25579254  0.75867787  0.97327557    -0.51300
O2233       O  0.31055177  0.84360253  0.94172605    -0.74500
O2234       O  0.20636708  0.82091026  0.94587284    -0.81300
O2235       O  0.39455157  0.80262684  0.53190280    -0.83100
O2236       O  0.14658246  0.86669712  0.94783696    -0.78700
O2237       O  0.35314854  0.78324128  0.99298816    -0.90300
O2238       O  0.29995202  0.90304906  0.94004109    -0.76300
O2239       O  0.23423286  0.87805781  0.97369627    -0.85800
O2240       O  0.33338849  0.85914432  0.50236126    -0.85500
O2241       O  0.17847026  0.82587239  0.50714231    -0.72200
O2242       O  0.26704453  0.80413900  0.53685984    -0.84400
Zr2243     Zr  0.21485883  0.90893829  0.56102667     2.26400
Zr2244     Zr  0.14770165  0.88410541  0.99527579     2.06300
Zr2245     Zr  0.33345649  0.84382900  0.55246558     2.10000
Zr2246     Zr  0.30048669  0.91633223  0.98816474     1.78800
O2247       O  0.34921364  0.79294440  0.58904876    -0.93200
O2248       O  0.26577449  0.96863407  0.95744075    -0.41000
O2249       O  0.30277843  0.90433804  0.53915428    -0.77600
O2250       O  0.21507569  0.92640573  0.51047128    -0.96300
O2251       O  0.14772194  0.87152211  0.54466767    -0.89600
O2252       O  0.24637141  0.84904378  0.57367631    -0.92400
C2253       C  0.30938367  0.87539868  0.92806671     1.01300
C2254       C  0.39322671  0.78265359  0.01064380     1.14200
C2255       C  0.16925280  0.84255392  0.93528806     1.05000
O2256       O  0.10660851  0.93013555  0.96084849    -0.94600
O2257       O  0.09295064  0.93299788  0.51397341    -0.90300
O2258       O  0.13342469  0.94764719  0.55354870    -0.83500
C2259       C  0.09495688  0.95121683  0.53501554     1.11700
O2260       O  0.13505853  0.75665921  0.54850771    -0.96600
Zr2261     Zr  0.17889354  0.81180014  0.55751398     1.88900
O2262       O  0.16917982  0.88331273  0.60533729    -0.73200
O2263       O  0.06067949  0.85721139  0.49612049    -0.52500
O2264       O  0.07973663  0.81061746  0.55654746    -0.97200
O2265       O  0.21136480  0.76420253  0.59372810    -0.54400
O2266       O  0.15336934  0.82435364  0.60355742    -0.73700
C2267       C  0.15351946  0.85169771  0.61648092     0.98600
O2268       O  0.23250622  0.96913207  0.57156056    -0.62600
O2269       O  0.42448796  0.86925437  0.55345599    -0.57400
O2270       O  0.27990933  0.91165753  0.59851262    -0.94000
O2271       O  0.34899374  0.87331398  0.59403973    -0.92500
O2272       O  0.39831647  0.92007863  0.47620015    -0.92800
O2273       O  0.35944277  0.96652183  0.50081749    -0.91600
C2274       C  0.32448155  0.89615038  0.60708357     1.17500
H2275       H  0.36788136  0.85406320  0.99335768     0.33400
H2276       H  0.20288405  0.95082723  0.50572171     0.44200
H2277       H  0.25101528  0.84303003  0.59383193     0.37800
H2278       H  0.15306781  0.80670763  0.99914275     0.34300
H2279       H  0.28917435  0.97137586  0.94042798     0.26000
H2280       H  0.04194874  0.86015148  0.01343986     0.32000
H2281       H  0.06778914  0.82472318  0.57135837     0.37900
H2282       H  0.39582456  0.92647380  0.95324365     0.32300
H2283       H  0.44910110  0.84836828  0.55690884     0.31200
H2284       H  0.33957279  0.77160857  0.58015348     0.32900
H2285       H  0.18155196  0.75921222  0.60760741     0.31900
H2286       H  0.37962075  0.95566279  0.51782970     0.35900
H2287       H  0.27163136  0.97330524  0.56751383     0.28600
H2288       H  0.26567850  0.76178855  0.95302123     0.32800
H2289       H  0.12132987  0.74510503  0.56707416     0.35700
H2290       H  0.43174255  0.88000159  0.53366342     0.28300
H2291       H  0.21390371  0.98575579  0.55674870     0.41200
H2292       H  0.13627365  0.93856174  0.94750881     0.31200
H2293       H  0.23017724  0.96085487  0.95077121     0.38800
H2294       H  0.24011318  0.77548243  0.60399557     0.30700
H2295       H  0.04289608  0.86029574  0.98068492     0.30800
H2296       H  0.21607057  0.75480735  0.97324151     0.31000
N2297       N  0.01147192  0.63700911  0.73110732    -0.36600
N2298       N  0.92429870  0.63900850  0.77036383    -0.57200
N2299       N  0.00811032  0.64561673  0.81115932    -0.36600
N2300       N  0.09484509  0.64451549  0.77009915    -0.57200
C2301       C  0.96869941  0.62392636  0.71829402     0.27000
C2302       C  0.05633240  0.62683294  0.71827609     0.27000
C2303       C  0.96363943  0.63837572  0.82773607     0.27000
C2304       C  0.05225289  0.63948448  0.82801930     0.27000
C2305       C  0.89553291  0.64499498  0.74624971     0.35600
C2306       C  0.89291941  0.64907164  0.79076475     0.35600
C2307       C  0.12445867  0.65267250  0.74631646     0.35600
C2308       C  0.12392159  0.65439512  0.79139898     0.35600
C2309       C  0.98676681  0.60389395  0.69793702    -0.21900
C2310       C  0.04214737  0.60570887  0.69797000    -0.21900
C2311       C  0.97966845  0.62743346  0.85542750    -0.21900
C2312       C  0.03542393  0.62810534  0.85562922    -0.21900
C2313       C  0.84452514  0.65812771  0.75126034    -0.23000
C2314       C  0.84286468  0.66082369  0.77978531    -0.22900
C2315       C  0.17344855  0.66810178  0.75234959    -0.23000
C2316       C  0.17346042  0.66872664  0.78129956    -0.22900
C2317       C  0.91534482  0.63633713  0.72063149    -0.18300
C2318       C  0.10763167  0.64255674  0.72047782    -0.18300
C2319       C  0.10698756  0.64728826  0.81977532    -0.18300
C2320       C  0.90917124  0.64551715  0.81917173    -0.18300
H2321       H  0.96320525  0.59089246  0.68329735     0.14600
H2322       H  0.06851048  0.59465226  0.68335492     0.14600
H2323       H  0.95384315  0.62070854  0.87377695     0.14600
H2324       H  0.06055506  0.62198870  0.87426310     0.14600
H2325       H  0.81207240  0.66462425  0.73612151     0.12900
H2326       H  0.80881103  0.66993479  0.79116219     0.12900
H2327       H  0.20616319  0.67665661  0.73775474     0.12900
H2328       H  0.20612502  0.67820495  0.79351102     0.12900
H2329       H  0.00964739  0.65778139  0.74329743     0.26200
H2330       H  0.00817549  0.65879936  0.79052169     0.26200
N2331       N  0.97184254  0.85447690  0.73720321    -0.36600
N2332       N  0.89532446  0.86679090  0.77908513    -0.57200
N2333       N  0.98638744  0.86098034  0.81666668    -0.36600
N2334       N  0.06348208  0.84792142  0.77582863    -0.57200
C2335       C  0.93065164  0.87090335  0.72177260     0.27000
C2336       C  0.01646904  0.85825880  0.72066041     0.27000
C2337       C  0.94652898  0.87373384  0.83159892     0.27000
C2338       C  0.03337540  0.86601993  0.83005892     0.27000
C2339       C  0.86010310  0.86266509  0.75839921     0.35600
C2340       C  0.86804719  0.85976074  0.80353148     0.35600
C2341       C  0.08525732  0.83278632  0.75468661     0.35600
C2342       C  0.09347537  0.83743074  0.79905777     0.35600
C2343       C  0.94997798  0.88587882  0.69535612    -0.21900
C2344       C  0.00425092  0.87823784  0.69481594    -0.21900
C2345       C  0.96836689  0.88844028  0.85411770    -0.21900
C2346       C  0.02340782  0.88366911  0.85310383    -0.21900
C2347       C  0.80886469  0.85428519  0.76953954    -0.23000
C2348       C  0.81433340  0.85132804  0.79856544    -0.22900
C2349       C  0.13071936  0.81300990  0.76421452    -0.23000
C2350       C  0.13592522  0.81595249  0.79265314    -0.22900
C2351       C  0.87530621  0.86838441  0.72990548    -0.18300
C2352       C  0.06526953  0.83940134  0.72687638    -0.18300
C2353       C  0.08229779  0.84862531  0.82526469    -0.18300
C2354       C  0.89175432  0.86404321  0.82945664    -0.18300
H2355       H  0.92766436  0.89983595  0.67772206     0.14600
H2356       H  0.03111826  0.88514019  0.67690808     0.14600
H2357       H  0.94649550  0.89869520  0.87088100     0.14600
H2358       H  0.05213300  0.88986219  0.86886558     0.14600
H2359       H  0.77177827  0.85074621  0.75811152     0.12900
H2360       H  0.78229727  0.84513200  0.81403868     0.12900
H2361       H  0.15717554  0.79822948  0.75200729     0.12900
H2362       H  0.16704294  0.80381709  0.80688490     0.12900
H2363       H  0.96807132  0.83670768  0.75594161     0.26200
H2364       H  0.98036789  0.84298535  0.80235580     0.26200
N2365       N  0.48947342  0.90878954  0.80924290    -0.36600
N2366       N  0.40636910  0.92492605  0.76619493    -0.57200
N2367       N  0.49619807  0.93137457  0.72673295    -0.36600
N2368       N  0.57853142  0.91633187  0.76904825    -0.57200
C2369       C  0.44573358  0.91570140  0.82460179     0.27000
C2370       C  0.53338391  0.90970755  0.82601901     0.27000
C2371       C  0.45330215  0.94190745  0.70996920     0.27000
C2372       C  0.54174333  0.93885113  0.71111128     0.27000
C2373       C  0.37558485  0.91089195  0.78840270     0.35600
C2374       C  0.37969567  0.91857914  0.74277528     0.35600
C2375       C  0.60475045  0.89941465  0.79177381     0.35600
C2376       C  0.60893985  0.91191726  0.74642552     0.35600
C2377       C  0.46229747  0.92148832  0.85137101    -0.21900
C2378       C  0.51758543  0.91777183  0.85223053    -0.21900
C2379       C  0.47190346  0.95744552  0.68363550    -0.21900
C2380       C  0.52744796  0.95515592  0.68427057    -0.21900
C2381       C  0.32778545  0.89692939  0.77918920    -0.23000
C2382       C  0.33070641  0.90136093  0.75006655    -0.22900
C2383       C  0.65331149  0.88525122  0.78382991    -0.23000
C2384       C  0.65595717  0.89321898  0.75482112    -0.22900
C2385       C  0.39126636  0.91077740  0.81667759    -0.18300
C2386       C  0.58608103  0.89884330  0.81951495    -0.18300
C2387       C  0.59383532  0.92454678  0.71844792    -0.18300
C2388       C  0.39969152  0.92886801  0.71513962    -0.18300
H2389       H  0.43719935  0.92619009  0.86902803     0.14600
H2390       H  0.54291430  0.91931098  0.87053150     0.14600
H2391       H  0.44774548  0.96601462  0.66497560     0.14600
H2392       H  0.55373317  0.96175546  0.66613636     0.14600
H2393       H  0.29543619  0.88380900  0.79209773     0.12900
H2394       H  0.30049146  0.89289980  0.73593777     0.12900
H2395       H  0.68337235  0.87075355  0.79747329     0.12900
H2396       H  0.68829254  0.88589613  0.74143628     0.12900
H2397       H  0.48846809  0.89780529  0.79053352     0.26200
H2398       H  0.49379493  0.91305090  0.74506071     0.26200
N2399       N  0.49745528  0.60577641  0.73369835    -0.36600
N2400       N  0.41568689  0.59974458  0.77778389    -0.57200
N2401       N  0.50446765  0.59923181  0.81599875    -0.36600
N2402       N  0.58536962  0.60507565  0.77192535    -0.57200
C2403       C  0.45185942  0.61671904  0.71934409     0.27000
C2404       C  0.53986997  0.61536897  0.71624472     0.27000
C2405       C  0.46083112  0.60409152  0.83215373     0.27000
C2406       C  0.54802861  0.61187163  0.82870872     0.27000
C2407       C  0.38424824  0.59379953  0.75596867     0.35600
C2408       C  0.38889513  0.58640261  0.80157704     0.35600
C2409       C  0.61461662  0.59881587  0.74935810     0.35600
C2410       C  0.61892269  0.60069124  0.79432111     0.35600
C2411       C  0.46581325  0.63433183  0.69270918    -0.21900
C2412       C  0.52145617  0.63355711  0.69082282    -0.21900
C2413       C  0.47651612  0.62038558  0.85505775    -0.21900
C2414       C  0.53140267  0.62539535  0.85287487    -0.21900
C2415       C  0.33610434  0.57718836  0.76585302    -0.23000
C2416       C  0.33932328  0.57214407  0.79504026    -0.22900
C2417       C  0.66780088  0.59057952  0.75733205    -0.23000
C2418       C  0.67067231  0.59219660  0.78601777    -0.22900
C2419       C  0.39888345  0.60479404  0.72759428    -0.18300
C2420       C  0.59382210  0.60413552  0.72163008    -0.18300
C2421       C  0.60286646  0.60680797  0.82142391    -0.18300
C2422       C  0.40850085  0.59019980  0.82856179    -0.18300
H2423       H  0.43881097  0.64488541  0.67570890     0.14600
H2424       H  0.54544118  0.64358831  0.67236216     0.14600
H2425       H  0.45141423  0.62702082  0.87212626     0.14600
H2426       H  0.55617843  0.63636247  0.86823298     0.14600
H2427       H  0.30257339  0.56935895  0.75340968     0.12900
H2428       H  0.30864372  0.56004731  0.80967105     0.12900
H2429       H  0.70118583  0.58523118  0.74381511     0.12900
H2430       H  0.70654618  0.58799625  0.79914155     0.12900
H2431       H  0.49899501  0.58722690  0.75205219     0.26200
H2432       H  0.50545932  0.58308736  0.80007655     0.26200
C2433       C  0.32064387  0.93187946  0.64697297    -0.05800
C2434       C  0.34607907  0.90412502  0.63487276     0.00100
C2435       C  0.38558037  0.88269713  0.65122574    -0.08400
C2436       C  0.39720948  0.89000271  0.67856888    -0.05800
C2437       C  0.37154113  0.91758700  0.69032776     0.00100
C2438       C  0.33010328  0.93757529  0.67493078    -0.08300
C2439       C  0.29258755  0.96352202  0.68697239     0.62000
H2440       H  0.29071664  0.94866247  0.63489301     0.12700
H2441       H  0.42878067  0.87511494  0.69091016     0.12700
C2442       C  0.41629738  0.85245215  0.64045523     0.62300
F2443       F  0.30594874  0.96863386  0.71408874    -0.22900
F2444       F  0.23992162  0.95054257  0.68747887    -0.20200
F2445       F  0.29344578  0.99624945  0.66987450    -0.19900
F2446       F  0.44454636  0.86561927  0.61611734    -0.20000
F2447       F  0.38013539  0.82607239  0.63515412    -0.20300
F2448       F  0.45383598  0.83656075  0.65987525    -0.22900
C2449       C  0.31458250  0.91738767  0.88295773    -0.05800
C2450       C  0.31960853  0.88173564  0.89683073     0.00100
C2451       C  0.33506640  0.85450675  0.88050875    -0.08400
C2452       C  0.35113697  0.86494692  0.85227168    -0.05800
C2453       C  0.35235635  0.90097760  0.84007557     0.00100
C2454       C  0.33088836  0.92746710  0.85481404    -0.08300
C2455       C  0.32768280  0.96638806  0.84102082     0.62000
H2456       H  0.29991872  0.93801224  0.89457646     0.12700
H2457       H  0.36780700  0.84539718  0.84013206     0.12700
C2458       C  0.33734432  0.81488600  0.89246460     0.62300
F2459       F  0.29713494  0.96849484  0.81655717    -0.22900
F2460       F  0.37910005  0.97989012  0.83420643    -0.20200
F2461       F  0.30363640  0.98792799  0.85860682    -0.19900
F2462       F  0.28698729  0.80343278  0.90310764    -0.20000
F2463       F  0.37620438  0.80923752  0.91353530    -0.20300
F2464       F  0.35093697  0.79383744  0.87205105    -0.22900
C2465       C  0.14547066  0.85000369  0.69638098    -0.05800
C2466       C  0.09718822  0.83093562  0.70245653     0.00100
C2467       C  0.07217074  0.81391595  0.68116691    -0.08400
C2468       C  0.09053473  0.82235303  0.65323327    -0.05800
C2469       C  0.13559257  0.84494248  0.64644266     0.00100
C2470       C  0.16614134  0.85611949  0.66877788    -0.08300
C2471       C  0.22031014  0.87425496  0.66361217     0.62000
H2472       H  0.16466986  0.86244154  0.71293825     0.12700
H2473       H  0.06919147  0.81133306  0.63656764     0.12700
C2474       C  0.02404206  0.78866258  0.68681788     0.62300
F2475       F  0.21209849  0.90797050  0.64875575    -0.22900
F2476       F  0.25278554  0.85412070  0.64837971    -0.20200
F2477       F  0.24697233  0.87749444  0.68863053    -0.19900
F2478       F  0.97771138  0.80516033  0.67493019    -0.20000
F2479       F  0.01531032  0.77817144  0.71541363    -0.20300
F2480       F  0.03359605  0.75816224  0.67463577    -0.22900
C2481       C  0.10009955  0.81371478  0.87155514    -0.05800
C2482       C  0.11854763  0.84036081  0.84999958     0.00100
C2483       C  0.15752045  0.86575626  0.85613968    -0.08400
C2484       C  0.17489621  0.86479789  0.88426579    -0.05800
C2485       C  0.15284767  0.84004010  0.90609440     0.00100
C2486       C  0.11575142  0.81367745  0.89981093    -0.08300
C2487       C  0.08956211  0.78778108  0.92323037     0.62000
H2488       H  0.06872276  0.79539168  0.86649578     0.12700
H2489       H  0.20341722  0.88465405  0.88969114     0.12700
C2490       C  0.17680830  0.89532864  0.83334563     0.62300
F2491       F  0.05538931  0.76362344  0.91270531    -0.22900
F2492       F  0.05941206  0.80683522  0.94038821    -0.20200
F2493       F  0.12912513  0.76855467  0.93930333    -0.19900
F2494       F  0.13371755  0.91706881  0.82351296    -0.20000
F2495       F  0.19869642  0.88041822  0.81112731    -0.20300
F2496       F  0.21596753  0.91663510  0.84332797    -0.22900
C2497       C  0.61226339  0.85422990  0.85969102    -0.05800
C2498       C  0.62242554  0.88773879  0.84357812     0.00100
C2499       C  0.65504655  0.91336846  0.85438955    -0.08400
C2500       C  0.67333753  0.90547637  0.88226779    -0.05800
C2501       C  0.65872133  0.87337022  0.89956837     0.00100
C2502       C  0.62981927  0.84648553  0.88784511    -0.08300
C2503       C  0.61511543  0.81077062  0.90516254     0.62000
H2504       H  0.58663566  0.83535819  0.85067458     0.12700
H2505       H  0.69638454  0.92549095  0.89139097     0.12700
C2506       C  0.66596106  0.95002985  0.83735427     0.62300
F2507       F  0.58324340  0.78984561  0.89007652    -0.22900
F2508       F  0.58653851  0.81619153  0.92911789    -0.20200
F2509       F  0.66215695  0.79203193  0.91292737    -0.19900
F2510       F  0.61760670  0.96803959  0.83125094    -0.20000
F2511       F  0.69172420  0.94619275  0.81229848    -0.20300
F2512       F  0.69862277  0.97105691  0.85186990    -0.22900
C2513       C  0.66822239  0.93871351  0.64981173    -0.05800
C2514       C  0.65339776  0.90728382  0.63869591     0.00100
C2515       C  0.63011993  0.87819874  0.65745564    -0.08400
C2516       C  0.61576900  0.88390451  0.68482462    -0.05800
C2517       C  0.62785955  0.91599661  0.69482081     0.00100
C2518       C  0.65959523  0.94217682  0.67833127    -0.08300
C2519       C  0.68618042  0.97219110  0.69141737     0.62000
H2520       H  0.68666787  0.96074789  0.63610914     0.12700
H2521       H  0.59215642  0.86397637  0.69832563     0.12700
C2522       C  0.61907230  0.84139771  0.64926318     0.62300
F2523       F  0.72278343  0.95754819  0.71175368    -0.22900
F2524       F  0.64809279  0.99101082  0.70426984    -0.20200
F2525       F  0.71390545  0.99594775  0.67157153    -0.19900
F2526       F  0.66594973  0.82822713  0.63856770    -0.20000
F2527       F  0.57780417  0.84372126  0.62947903    -0.20300
F2528       F  0.60284568  0.81687372  0.67218020    -0.22900
C2529       C  0.81280044  0.87260498  0.89513800    -0.05800
C2530       C  0.83635248  0.84459785  0.91352251     0.00100
C2531       C  0.87494406  0.82205989  0.90392371    -0.08400
C2532       C  0.88447712  0.82566609  0.87481116    -0.05800
C2533       C  0.86285875  0.85476170  0.85634665     0.00100
C2534       C  0.82890382  0.87980367  0.86689269    -0.08300
C2535       C  0.81534982  0.91569013  0.84960848     0.62000
H2536       H  0.78543366  0.89069894  0.90376553     0.12700
H2537       H  0.91452194  0.80888506  0.86668214     0.12700
C2538       C  0.90909851  0.79745736  0.92475323     0.62300
F2539       F  0.78904174  0.93795659  0.86572736    -0.22900
F2540       F  0.78248143  0.91060107  0.82716279    -0.20200
F2541       F  0.86239731  0.93315470  0.83940402    -0.19900
F2542       F  0.87619210  0.77237851  0.94060019    -0.20000
F2543       F  0.93565388  0.81741453  0.94274173    -0.20300
F2544       F  0.94818641  0.77987637  0.91130462    -0.22900
C2545       C  0.82731543  0.90716360  0.69287326    -0.05800
C2546       C  0.83442131  0.87238410  0.70712872     0.00100
C2547       C  0.81972593  0.84260453  0.69391394    -0.08400
C2548       C  0.80328124  0.84881174  0.66563358    -0.05800
C2549       C  0.80757719  0.88305314  0.64944915     0.00100
C2550       C  0.81882451  0.91318109  0.66349053    -0.08300
C2551       C  0.82921516  0.95064828  0.64778989     0.62000
H2552       H  0.83865963  0.92922878  0.70393158     0.12700
H2553       H  0.79145444  0.82616795  0.65539387     0.12700
C2554       C  0.82505165  0.80432988  0.70889855     0.62300
F2555       F  0.84441143  0.97444807  0.66584314    -0.22900
F2556       F  0.78297500  0.96397705  0.63395767    -0.20200
F2557       F  0.87084356  0.94963420  0.62846281    -0.19900
F2558       F  0.79144210  0.79923988  0.73226150    -0.20000
F2559       F  0.87817412  0.79751103  0.71743517    -0.20300
F2560       F  0.81051118  0.77945117  0.69154444    -0.22900
C2561       C  0.65142487  0.57479015  0.65477599    -0.05800
C2562       C  0.68396800  0.60434549  0.64473775     0.00100
C2563       C  0.69092886  0.63234110  0.66155930    -0.08400
C2564       C  0.66461849  0.62947047  0.68783771    -0.05800
C2565       C  0.62929894  0.60103641  0.69695463     0.00100
C2566       C  0.62193325  0.57337726  0.68006791    -0.08300
C2567       C  0.57791155  0.54517421  0.68636086     0.62000
H2568       H  0.64465333  0.55463437  0.64108550     0.12700
H2569       H  0.66835954  0.65108379  0.70046024     0.12700
C2570       C  0.72145071  0.66707859  0.65222639     0.62300
F2571       F  0.57742156  0.02473370  0.67165669    -0.22900
F2572       F  0.52308858  0.06744882  0.68230376    -0.20200
F2573       F  0.57680006  0.03806109  0.71604811    -0.19900
F2574       F  0.68435542  0.69454834  0.64584666    -0.20000
F2575       F  0.75376249  0.66566212  0.62897544    -0.20300
F2576       F  0.75466997  0.67497799  0.67389161    -0.22900
C2577       C  0.66467422  0.58687680  0.89276634    -0.05800
C2578       C  0.67083271  0.62218681  0.89892559     0.00100
C2579       C  0.66900834  0.65124603  0.87593314    -0.08400
C2580       C  0.65849305  0.64334383  0.84854511    -0.05800
C2581       C  0.64312352  0.60895121  0.84405681     0.00100
C2582       C  0.64852966  0.57998517  0.86598998    -0.08300
C2583       C  0.63343351  0.54229682  0.86128836     0.62000
H2584       H  0.66811427  0.56449704  0.90957893     0.12700
H2585       H  0.65369304  0.66474654  0.83101651     0.12700
C2586       C  0.67286148  0.69066156  0.87959686     0.62300
F2587       F  0.57810954  0.53987761  0.85669903    -0.22900
F2588       F  0.64685600  0.51709394  0.88422085    -0.20200
F2589       F  0.66098103  0.53426111  0.83785985    -0.19900
F2590       F  0.72282520  0.69798561  0.89040616    -0.20000
F2591       F  0.63200007  0.69900512  0.89738042    -0.20300
F2592       F  0.66712303  0.71327068  0.85423411    -0.22900
C2593       C  0.86258135  0.60918019  0.68661876    -0.05800
C2594       C  0.88273058  0.64078227  0.69453971     0.00100
C2595       C  0.89087699  0.67116972  0.67391771    -0.08400
C2596       C  0.88131309  0.66802876  0.64542041    -0.05800
C2597       C  0.86913876  0.63464670  0.63684468     0.00100
C2598       C  0.86215809  0.60407789  0.65815127    -0.08300
C2599       C  0.86144147  0.56548342  0.65209544     0.62000
H2600       H  0.85714924  0.58653754  0.70313933     0.12700
H2601       H  0.88606843  0.69141239  0.62957454     0.12700
C2602       C  0.91159521  0.70624751  0.68211796     0.62300
F2603       F  0.87045541  0.54132696  0.67632287    -0.22900
F2604       F  0.90252684  0.56036605  0.63331775    -0.20200
F2605       F  0.81169132  0.55731495  0.64133441    -0.19900
F2606       F  0.96346440  0.70177529  0.69313587    -0.20000
F2607       F  0.87762702  0.71705404  0.70227367    -0.20300
F2608       F  0.91338769  0.73327702  0.65921225    -0.22900
C2609       C  0.81604238  0.62756319  0.88223578    -0.05800
C2610       C  0.82781797  0.65790137  0.89518657     0.00100
C2611       C  0.85750306  0.68669327  0.88012228    -0.08400
C2612       C  0.87662086  0.68342736  0.85296205    -0.05800
C2613       C  0.87005950  0.65157593  0.84150365     0.00100
C2614       C  0.83778732  0.62352725  0.85570656    -0.08300
C2615       C  0.83060665  0.58843910  0.84406898     0.62000
H2616       H  0.79312082  0.60580164  0.89409219     0.12700
H2617       H  0.90185723  0.70427610  0.84151529     0.12700
C2618       C  0.87341889  0.71918871  0.89341772     0.62300
F2619       F  0.88038477  0.57168566  0.84327412    -0.22900
F2620       F  0.80948875  0.59486201  0.81705743    -0.20200
F2621       F  0.79551385  0.56533507  0.86049935    -0.19900
F2622       F  0.90190779  0.70856275  0.91814270    -0.20000
F2623       F  0.82735883  0.73766520  0.89920522    -0.20300
F2624       F  0.90624916  0.74214617  0.87553266    -0.22900
C2625       C  0.33700285  0.60680603  0.89380833    -0.05800
C2626       C  0.36250464  0.58066973  0.91350120     0.00100
C2627       C  0.39037688  0.55210664  0.90351107    -0.08400
C2628       C  0.39511642  0.55250672  0.87408504    -0.05800
C2629       C  0.37578064  0.58131782  0.85471378     0.00100
C2630       C  0.34377898  0.60799453  0.86453239    -0.08300
C2631       C  0.32108854  0.63925337  0.84430612     0.62000
H2632       H  0.31385548  0.62767183  0.90159900     0.12700
H2633       H  0.42002246  0.53265898  0.86595345     0.12700
C2634       C  0.41904725  0.52318268  0.92341583     0.62300
F2635       F  0.29194293  0.66265083  0.85830614    -0.22900
F2636       F  0.28674415  0.62649345  0.82515600    -0.20200
F2637       F  0.36286587  0.65848346  0.82979115    -0.19900
F2638       F  0.38129147  0.50301178  0.94022621    -0.20000
F2639       F  0.45511982  0.53881103  0.94024144    -0.20300
F2640       F  0.44808319  0.50014724  0.90895529    -0.22900
C2641       C  0.33966388  0.57115050  0.66410539    -0.05800
C2642       C  0.31566315  0.60252492  0.65037110     0.00100
C2643       C  0.31267340  0.63342076  0.66422839    -0.08400
C2644       C  0.33431109  0.63151562  0.69151104    -0.05800
C2645       C  0.36061318  0.60066245  0.70456021     0.00100
C2646       C  0.36267347  0.56968245  0.69111189    -0.08300
C2647       C  0.39139504  0.53590273  0.70479658     0.62000
H2648       H  0.34413787  0.54877648  0.65247035     0.12700
H2649       H  0.33505129  0.65538954  0.70176341     0.12700
C2650       C  0.29140766  0.66974801  0.65077267     0.62300
F2651       F  0.39148736  0.50976949  0.68737448    -0.22900
F2652       F  0.36560669  0.52247663  0.72977002    -0.20200
F2653       F  0.44485596  0.54297923  0.71069295    -0.19900
F2654       F  0.26409325  0.66862141  0.62572873    -0.20000
F2655       F  0.33465172  0.69333048  0.64549678    -0.20300
F2656       F  0.25597977  0.68302692  0.66917763    -0.22900
C2657       C  0.19206876  0.61402243  0.88316840    -0.05800
C2658       C  0.18998224  0.64410407  0.89734937     0.00100
C2659       C  0.17012692  0.67707936  0.88330129    -0.08400
C2660       C  0.14994401  0.67830909  0.85571233    -0.05800
C2661       C  0.14708326  0.64736659  0.84272787     0.00100
C2662       C  0.17008239  0.61493591  0.85600926    -0.08300
C2663       C  0.16735607  0.58092286  0.84242444     0.62000
H2664       H  0.20811304  0.58917301  0.89427080     0.12700
H2665       H  0.13128158  0.70254203  0.84505765     0.12700
C2666       C  0.16503403  0.70966359  0.89828626     0.62300
F2667       F  0.19579641  0.55310794  0.85787490    -0.22900
F2668       F  0.18946623  0.58718115  0.81557313    -0.20200
F2669       F  0.11385517  0.57009784  0.84055489    -0.19900
F2670       F  0.21580289  0.72097708  0.90572380    -0.20000
F2671       F  0.13361073  0.70104470  0.92232183    -0.20300
F2672       F  0.14064215  0.73788959  0.88125740    -0.22900
C2673       C  0.17442163  0.61961943  0.65595554    -0.05800
C2674       C  0.14799380  0.64407434  0.63528168     0.00100
C2675       C  0.11713096  0.67218067  0.64412946    -0.08400
C2676       C  0.11639929  0.67566806  0.67304655    -0.05800
C2677       C  0.13886591  0.64943599  0.69368290     0.00100
C2678       C  0.17009619  0.62166087  0.68501735    -0.08300
C2679       C  0.19505126  0.59289701  0.70666149     0.62000
H2680       H  0.19723013  0.59791923  0.64925701     0.12700
H2681       H  0.09046074  0.69589981  0.68002002     0.12700
C2682       C  0.07850695  0.69614605  0.62523565     0.62300
F2683       F  0.22615408  0.56907628  0.69408912    -0.22900
F2684       F  0.15469950  0.57353751  0.72227848    -0.20200
F2685       F  0.22802548  0.60885500  0.72469274    -0.19900
F2686       F  0.07535899  0.68784491  0.59810938    -0.20000
F2687       F  0.09458631  0.73147516  0.62406794    -0.20300
F2688       F  0.02669675  0.69252280  0.63664752    -0.22900
loop_ 
_geom_bond_atom_site_label_1 
_geom_bond_atom_site_label_2 
_geom_bond_distance 
_geom_bond_site_symmetry_2 
_ccdc_geom_bond_type 
C1            C6   1.422       .  A
C1          C674   1.424   1_554  A
C1          C177   1.505       .  S
C2            C3   1.424       .  A
C2          C673   1.425       .  A
C2          C106   1.511       .  S
C3            C4   1.426       .  A
C3            H8   1.085       .  S
C4          C677   1.427       .  A
C4           C45   1.501       .  S
C5            C6   1.420       .  A
C5          C676   1.430       .  A
C5          C910   1.520       .  S
C6            H7   1.085       .  S
C9           C14   1.429       .  A
C9         C1354   1.420       .  A
C9          C172   1.512       .  S
C10          C11   1.425   1_655  A
C10        C1353   1.423   1_545  A
C10         C111   1.510       .  S
C11          C12   1.428       .  A
C11          H16   1.085       .  S
C12        C1357   1.435   1_545  A
C12          C40   1.512       .  S
C13          C14   1.422   1_455  A
C13        C1356   1.438       .  A
C13         C243   1.528       .  S
C14          H15   1.085       .  S
Zr17         O18   2.437       .  S
Zr17         O19   2.419       .  S
Zr17         O20   2.459       .  S
Zr17         O23   2.518       .  S
Zr17         O25   2.385       .  S
Zr17         O26   2.378       .  S
Zr17         O27   2.428       .  S
Zr17         O28   2.389       .  S
O18          H74   0.990       .  S
O18          H82   0.990       .  S
O19          C39   1.280       .  A
O20          C41   1.289       .  A
O21        Zr703   2.436   1_554  S
O21          C40   1.284       .  A
O22         Zr30   2.395       .  S
O22          C41   1.277       .  A
O23          C40   1.301       .  A
O24         Zr32   2.456       .  S
O24          C39   1.288       .  A
O25         Zr30   2.392       .  S
O25         Zr32   2.352       .  S
O26         Zr32   2.375       .  S
O26        Zr703   2.380   1_554  S
O26          H61   0.966       .  S
O27         Zr30   2.405       .  S
O27        Zr719   2.402       .  S
O27          H64   0.965       .  S
O28        Zr703   2.399   1_554  S
O28        Zr719   2.406       .  S
Zr29         O54   2.445       .  S
Zr29         O48   2.446       .  S
Zr29         O56   2.431       .  S
Zr29         O44   2.487       .  S
Zr29         O35   2.424       .  S
Zr29         O38   2.378       .  S
Zr29        O708   2.402       .  S
Zr29        O709   2.377       .  S
Zr30         O49   2.435       .  S
Zr30         O42   2.437       .  S
Zr30         O43   2.447       .  S
Zr30         O36   2.392       .  S
Zr30         O37   2.380       .  S
Zr31         O33   2.436       .  S
Zr31         O55   2.436       .  S
Zr31         O57   2.433       .  S
Zr31        O693   2.438       .  S
Zr31         O35   2.397       .  S
Zr31         O38   2.368       .  S
Zr31        O698   2.380       .  S
Zr31        O700   2.401       .  S
Zr32         O58   2.439       .  S
Zr32         O59   2.438       .  S
Zr32         O34   2.417       .  S
Zr32         O36   2.413       .  S
Zr32        O707   2.402   1_554  S
O33          H70   0.990       .  S
O34          H65   0.989       .  S
O34          H79   0.986       .  S
O35        Zr704   2.405       .  S
O36        Zr701   2.395   1_554  S
O36          H62   0.961       .  S
O37        Zr701   2.377   1_554  S
O37        Zr719   2.386       .  S
O38         Zr47   2.373       .  S
O38          H63   0.963       .  S
C39         C658   1.485       .  S
C41         C626   1.468       .  S
O42          H78   0.990       .  S
O43         C717   1.285       .  A
O44          C45   1.291       .  A
C45         O715   1.286       .  A
O46        Zr719   2.442       .  S
O46          H75   0.990       .  S
Zr47         O51   2.412       .  S
Zr47        O718   2.440       .  S
Zr47        O722   2.438       .  S
Zr47         O52   2.436       .  S
Zr47        O699   2.398       .  S
Zr47        O700   2.408       .  S
Zr47        O709   2.380       .  S
O48          C53   1.285       .  A
O49          H66   0.990       .  S
O49          H81   0.990       .  S
O50        Zr719   2.439       .  S
O50         H739   0.990   1_554  S
O51          H71   0.990       .  S
O51          H80   0.986   1_545  S
O52          C53   1.283       .  A
C53         C610   1.486       .  S
O54          H73   0.988       .  S
O54          H77   0.991       .  S
O55          H69   0.990       .  S
O55         H748   0.990       .  S
O56          C60   1.283       .  A
O57          C60   1.285       .  A
O58          H68   0.990       .  S
O59          H72   0.990   1_554  S
C60         C642   1.475       .  S
H67         O722   0.990       .  S
H76         O727   0.990       .  S
Zr83         O84   2.434       .  S
Zr83         O85   2.408       .  S
Zr83         O86   2.436       .  S
Zr83         O89   2.529       .  S
Zr83         O91   2.383       .  S
Zr83         O93   2.436       .  S
Zr83        O764   2.372       .  S
Zr83        O766   2.389       .  S
O84         H140   0.988       .  S
O84         H148   0.989       .  S
O85         C105   1.275       .  A
O86         C107   1.284       .  A
O87         Zr97   2.411       .  S
O87         C778   1.279       .  A
O88         Zr96   2.417       .  S
O88         C107   1.282       .  A
O89         C106   1.303       .  A
O90        Zr770   2.447       .  S
O90         C105   1.288       .  A
O91         Zr96   2.379       .  S
O91        Zr770   2.333       .  S
O92         Zr97   2.377       .  S
O92         Zr98   2.369   1_554  S
O92        Zr755   2.372   1_554  S
O92         H799   0.966   1_554  S
O93         Zr96   2.415       .  S
O93        Zr785   2.391       .  S
O93         H130   0.966       .  S
O94         Zr97   2.406       .  S
O94        Zr113   2.421       .  S
O94        Zr755   2.390   1_554  S
Zr95        O120   2.429       .  S
Zr95        O114   2.399       .  S
Zr95        O122   2.469       .  S
Zr95        O110   2.498       .  S
Zr95        O101   2.416       .  S
Zr95        O102   2.405       .  S
Zr95        O103   2.382       .  S
Zr95        O104   2.369       .  S
Zr96        O115   2.437       .  S
Zr96        O108   2.436       .  S
Zr96        O781   2.451       .  S
Zr96        O774   2.407       .  S
Zr96        O775   2.377       .  S
Zr97         O99   2.437       .  S
Zr97        O121   2.435       .  S
Zr97        O123   2.406       .  S
Zr97        O101   2.400       .  S
Zr97        O104   2.366       .  S
Zr98        O124   2.437       .  S
Zr98        O125   2.433   1_556  S
Zr98        O772   2.427       .  S
Zr98        O762   2.451       .  S
Zr98        O101   2.409   1_556  S
Zr98        O102   2.414   1_556  S
Zr98        O763   2.335       .  S
O99         H136   0.991       .  S
O100       Zr770   2.431       .  S
O100        H131   0.989       .  S
O100        H145   0.990       .  S
O102       Zr768   2.407   1_554  S
O102        H128   0.965       .  S
O103       Zr113   2.376       .  S
O103       Zr768   2.379   1_554  S
O104       Zr113   2.339       .  S
O104        H129   0.954       .  S
C105        C562   1.497       .  S
C106        O759   1.279       .  A
C107        C594   1.471       .  S
O108        H144   0.991       .  S
O109       Zr768   2.451   1_554  S
O109        C111   1.287       .  A
O110        C111   1.296       .  A
O112       Zr113   2.436       .  S
O112        H141   0.990       .  S
Zr113       O116   2.440       .  S
Zr113       O117   2.431       .  S
Zr113       O118   2.453       .  S
Zr113       O765   2.394   1_554  S
O114        C119   1.274       .  A
O115        H132   0.990       .  S
O115        H147   0.990       .  S
O116        H133   0.990       .  S
O117        H137   0.989       .  S
O117        H146   0.989       .  S
O118        C119   1.289       .  A
C119        C581   1.494       .  S
O120        H139   0.989       .  S
O120        H143   0.988       .  S
O121        H135   0.990       .  S
O121        H142   0.990       .  S
O122        C126   1.290       .  A
O123        C126   1.278       .  A
O124        H806   0.990       .  S
O125        H138   0.990       .  S
C126        C546   1.472       .  S
H127        O764   0.965       .  S
H134        O796   0.991       .  S
Zr149       O150   2.418       .  S
Zr149       O151   2.405       .  S
Zr149       O152   2.441       .  S
Zr149       O155   2.518       .  S
Zr149       O157   2.377       .  S
Zr149       O158   2.367       .  S
Zr149       O159   2.423       .  S
Zr149       O160   2.392       .  S
O150        H206   0.990       .  S
O150        H214   0.988       .  S
O151        C171   1.279       .  A
O152        C173   1.291       .  A
O153       Zr835   2.424   1_554  S
O153        C172   1.284       .  A
O154       Zr162   2.412       .  S
O154        C173   1.280       .  A
O155        C172   1.302       .  A
O156       Zr164   2.426       .  S
O156        C171   1.285       .  A
O157       Zr162   2.378       .  S
O157       Zr164   2.334       .  S
O158       Zr164   2.357       .  S
O158       Zr835   2.365   1_554  S
O158        H193   0.964       .  S
O159       Zr162   2.408       .  S
O159       Zr851   2.385   1_554  S
O159        H196   0.966       .  S
O160       Zr835   2.402   1_554  S
O160       Zr851   2.423   1_554  S
Zr161       O186   2.418       .  S
Zr161       O180   2.413       .  S
Zr161       O188   2.417       .  S
Zr161       O176   2.446       .  S
Zr161       O170   2.377       .  S
Zr161       O839   2.404       .  S
Zr161       O840   2.397       .  S
Zr161       O841   2.372       .  S
Zr162       O181   2.435       .  S
Zr162       O174   2.435       .  S
Zr162       O175   2.463       .  S
Zr162       O168   2.391       .  S
Zr162       O169   2.362       .  S
Zr163       O165   2.435       .  S
Zr163       O187   2.430       .  S
Zr163       O189   2.412       .  S
Zr163       O825   2.419       .  S
Zr163       O170   2.368       .  S
Zr163       O830   2.380       .  S
Zr163       O832   2.394       .  S
Zr163       O839   2.392       .  S
Zr164       O190   2.441       .  S
Zr164       O191   2.428       .  S
Zr164       O166   2.433       .  S
Zr164       O167   2.399       .  S
Zr164       O168   2.410       .  S
O165        H202   0.990       .  S
O166        H197   0.990       .  S
O166        H211   0.990       .  S
O167       Zr833   2.409   1_554  S
O167       Zr835   2.392   1_554  S
O168       Zr833   2.393   1_554  S
O168        H194   0.966       .  S
O169       Zr833   2.369   1_554  S
O169       Zr851   2.364   1_554  S
O170       Zr179   2.346       .  S
O170        H195   0.962       .  S
C171        C533   1.489       .  S
C173        C498   1.490       .  S
O174        H210   0.989       .  S
O175        C177   1.292       .  A
O176        C849   1.287       .  A
C177        O848   1.289   1_554  A
O178       Zr851   2.432       .  S
O178        H207   0.990       .  S
Zr179       O183   2.437       .  S
Zr179       O850   2.432       .  S
Zr179       O854   2.438       .  S
Zr179       O184   2.425       .  S
Zr179       O831   2.385       .  S
Zr179       O832   2.423       .  S
Zr179       O841   2.360       .  S
O180        C185   1.281       .  A
O181        H198   0.990       .  S
O181        H213   0.990       .  S
O182       Zr851   2.441       .  S
O182        H871   0.990       .  S
O183        H203   0.990       .  S
O183        H212   0.990       .  S
O184        C185   1.284       .  A
C185        C485   1.472       .  S
O186        H205   0.989       .  S
O186        H209   0.988       .  S
O187        H201   0.990       .  S
O187        H880   0.990       .  S
O188        C192   1.283       .  A
O189        C192   1.282       .  A
O190        H200   0.990       .  S
O191        H204   0.990       .  S
C192        C514   1.449       .  S
H199        O854   0.990       .  S
H208        O859   0.990   1_556  S
Zr215       O216   2.436       .  S
Zr215       O217   2.405       .  S
Zr215       O218   2.420       .  S
Zr215       O221   2.504       .  S
Zr215       O223   2.381       .  S
Zr215       O896   2.372       .  S
Zr215       O897   2.421       .  S
Zr215       O898   2.389       .  S
O216        H272   0.986       .  S
O216        H280   0.989       .  S
O217        C237   1.276       .  A
O218        C239   1.282       .  A
O219       Zr229   2.465       .  S
O219        C910   1.291       .  A
O220       Zr228   2.451       .  S
O220        C239   1.289       .  A
O221        C238   1.296       .  A
O222       Zr230   2.429       .  S
O222        C237   1.283       .  A
O223       Zr228   2.386       .  S
O223       Zr230   2.339       .  S
O224       Zr229   2.390       .  S
O224       Zr887   2.377   1_554  S
O224       Zr902   2.373   1_554  S
O224        H931   0.966   1_554  S
O225       Zr245   2.392       .  S
O225       Zr887   2.427   1_554  S
O225       Zr900   2.421   1_554  S
O225        H934   0.966       .  S
O226       Zr229   2.397       .  S
O226       Zr245   2.416       .  S
O226       Zr887   2.395   1_554  S
Zr227       O252   2.432       .  S
Zr227       O246   2.467       .  S
Zr227       O254   2.421       .  S
Zr227       O242   2.475       .  S
Zr227       O233   2.421       .  S
Zr227       O234   2.414       .  S
Zr227       O235   2.373       .  S
Zr227       O236   2.383       .  S
Zr228       O240   2.435       .  S
Zr228       O919   2.432       .  S
Zr228       O913   2.493       .  S
Zr228       O897   2.417       .  S
Zr228       O906   2.398       .  S
Zr228       O907   2.381       .  S
Zr229       O231   2.434       .  S
Zr229       O253   2.435       .  S
Zr229       O255   2.446       .  S
Zr229       O233   2.402       .  S
Zr229       O236   2.389       .  S
Zr230       O232   2.438       .  S
Zr230       O928   2.442       .  S
Zr230       O929   2.432       .  S
Zr230       O896   2.365       .  S
Zr230       O905   2.408       .  S
Zr230       O906   2.419       .  S
O231        H268   0.990       .  S
O232        H263   0.990       .  S
O232        H277   0.990       .  S
O233       Zr902   2.401   1_554  S
O234       Zr900   2.403   1_554  S
O234       Zr902   2.414   1_554  S
O234        H260   0.965       .  S
O235       Zr245   2.376       .  S
O235       Zr900   2.384   1_554  S
O236       Zr245   2.371       .  S
O236        H261   0.965       .  S
C237        C434   1.491       .  S
C238        C677   1.518       .  S
C238        O891   1.290       .  A
C239        C469   1.470       .  S
O240        H276   0.990       .  S
O241       Zr900   2.507   1_554  S
O241        C243   1.300       .  A
O242        C243   1.290       .  A
O244       Zr245   2.432       .  S
O244        H273   0.989       .  S
Zr245       O248   2.439       .  S
Zr245       O249   2.444       .  S
Zr245       O250   2.401       .  S
O246        C251   1.291       .  A
O247       Zr900   2.435       .  S
O247        H936   0.990   1_556  S
O247        H951   0.990       .  S
O248        H265   0.990       .  S
O249        H269   0.990       .  S
O249        H278   0.990       .  S
O250        C251   1.276       .  A
C251        C453   1.485       .  S
O252        H271   0.989       .  S
O252        H275   0.989       .  S
O253        H267   0.990       .  S
O253        H274   0.990       .  S
O254        C258   1.284       .  A
O255        C258   1.286       .  A
O256       Zr902   2.437       .  S
O256        H938   0.990       .  S
O257       Zr902   2.435   1_554  S
O257        H270   0.991       .  S
C258        C418   1.502       .  S
H259        O896   0.965       .  S
H262        O897   0.966       .  S
H264        O919   0.989       .  S
H266        O928   0.990       .  S
H279        O919   0.990       .  S
N281        C286   1.346       .  A
N281        C285   1.345   1_455  A
N281        H313   1.042       .  S
N282        C289   1.343       .  A
N282        C290   1.339       .  A
N283        C288   1.353       .  A
N283        C287   1.355   1_455  A
N283        H314   1.039       .  S
N284        C291   1.347       .  A
N284        C292   1.340       .  A
C285        C293   1.390       .  A
C285        C301   1.407       .  A
C286        C302   1.400       .  A
C286        C294   1.384       .  A
C287        C295   1.386       .  A
C287        C304   1.417       .  A
C288        C303   1.421       .  A
C288        C296   1.390       .  A
C289        C301   1.398       .  A
C289        C297   1.384       .  A
C290        C304   1.399       .  A
C290        C298   1.387       .  A
C291        C299   1.384       .  A
C291        C302   1.406       .  A
C292        C300   1.389       .  A
C292        C303   1.407       .  A
C293        C294   1.363   1_655  A
C293        H305   1.077       .  S
C294        H306   1.082       .  S
C295        C296   1.374   1_655  A
C295        H307   1.083       .  S
C296        H308   1.082       .  S
C297        C298   1.381       .  A
C297        H309   1.082       .  S
C298        H310   1.082       .  S
C299        C300   1.388       .  A
C299        H311   1.082       .  S
C300        H312   1.082       .  S
C301        C578   1.469       .  S
C302        C661   1.483       .  S
C303        C645   1.477       .  S
C304        C597   1.476       .  S
N315        C320   1.348   1_655  A
N315        C319   1.351       .  A
N315        H347   1.043       .  S
N316        C323   1.340       .  A
N316        C324   1.341       .  A
N317        C322   1.348   1_655  A
N317        C321   1.345       .  A
N317        H348   1.041       .  S
N318        C325   1.344       .  A
N318        C326   1.346       .  A
C319        C327   1.389       .  A
C319        C335   1.412       .  A
C320        C336   1.407       .  A
C320        C328   1.385       .  A
C321        C329   1.386       .  A
C321        C338   1.402       .  A
C322        C337   1.409       .  A
C322        C330   1.389       .  A
C323        C335   1.397       .  A
C323        C331   1.385       .  A
C324        C338   1.399       .  A
C324        C332   1.386       .  A
C325        C333   1.387       .  A
C325        C336   1.408       .  A
C326        C334   1.385       .  A
C326        C337   1.408       .  A
C327        C328   1.366   1_655  A
C327        H339   1.079       .  S
C328        H340   1.082       .  S
C329        C330   1.368   1_655  A
C329        H341   1.082       .  S
C330        H342   1.082       .  S
C331        C332   1.382       .  A
C331        H343   1.081       .  S
C332        H344   1.082       .  S
C333        C334   1.386       .  A
C333        H345   1.082       .  S
C334        H346   1.082       .  S
C335        C530   1.472       .  S
C336        C450   1.481       .  S
C337        C466   1.481       .  S
C338        C517   1.468       .  S
N349        C354   1.348       .  A
N349        C353   1.348       .  A
N349        H381   1.039       .  S
N350        C357   1.344       .  A
N350        C358   1.346       .  A
N351        C356   1.351       .  A
N351        C355   1.351       .  A
N351        H382   1.037       .  S
N352        C359   1.343       .  A
N352        C360   1.343       .  A
C353        C361   1.389       .  A
C353        C369   1.408       .  A
C354        C370   1.408       .  A
C354        C362   1.387       .  A
C355        C363   1.386       .  A
C355        C372   1.412       .  A
C356        C371   1.415       .  A
C356        C364   1.387       .  A
C357        C369   1.400       .  A
C357        C365   1.384       .  A
C358        C372   1.406       .  A
C358        C366   1.386       .  A
C359        C367   1.385       .  A
C359        C370   1.398       .  A
C360        C368   1.386       .  A
C360        C371   1.401       .  A
C361        C362   1.368       .  A
C361        H373   1.081       .  S
C362        H374   1.082       .  S
C363        C364   1.370       .  A
C363        H375   1.082       .  S
C364        H376   1.081       .  S
C365        C366   1.379       .  A
C365        H377   1.081       .  S
C366        H378   1.082       .  S
C367        C368   1.378       .  A
C367        H379   1.082       .  S
C368        H380   1.082       .  S
C369        C437   1.469       .  S
C370        C482   1.468       .  S
C371        C501   1.473       .  S
C372        C421   1.482       .  S
N383        C388   1.348       .  A
N383        C387   1.348       .  A
N383        H415   1.042       .  S
N384        C391   1.342       .  A
N384        C392   1.344       .  A
N385        C390   1.349       .  A
N385        C389   1.349       .  A
N385        H416   1.041       .  S
N386        C393   1.346       .  A
N386        C394   1.344       .  A
C387        C395   1.391       .  A
C387        C403   1.412       .  A
C388        C404   1.403       .  A
C388        C396   1.384       .  A
C389        C397   1.385       .  A
C389        C406   1.407       .  A
C390        C405   1.411       .  A
C390        C398   1.390       .  A
C391        C403   1.404       .  A
C391        C399   1.387       .  A
C392        C406   1.401       .  A
C392        C400   1.385       .  A
C393        C401   1.386       .  A
C393        C404   1.408       .  A
C394        C402   1.385       .  A
C394        C405   1.405       .  A
C395        C396   1.375       .  A
C395        H407   1.081       .  S
C396        H408   1.083       .  S
C397        C398   1.364       .  A
C397        H409   1.081       .  S
C398        H410   1.080       .  S
C399        C400   1.384       .  A
C399        H411   1.082       .  S
C400        H412   1.082       .  S
C401        C402   1.383       .  A
C401        H413   1.082       .  S
C402        H414   1.081       .  S
C403        C629   1.473       .  S
C404        C549   1.483       .  S
C405        C565   1.477       .  S
C406        C613   1.476       .  S
C417        C418   1.417       .  A
C417        C422   1.404       .  A
C417        H424   1.083       .  S
C418        C419   1.428       .  A
C419        C420   1.402       .  A
C419        C426   1.521       .  S
C420        C421   1.400       .  A
C420        H425   1.084       .  S
C421        C422   1.411       .  A
C422        C423   1.522       .  S
C423        F427   1.379       .  S
C423        F428   1.381       .  S
C423        F429   1.378       .  S
C426        F430   1.382       .  S
C426        F431   1.382       .  S
C426        F432   1.386       .  S
C433        C434   1.414       .  A
C433        C438   1.400       .  A
C433        H440   1.082       .  S
C434        C435   1.429       .  A
C435        C436   1.404       .  A
C435        C442   1.523       .  S
C436        C437   1.397       .  A
C436        H441   1.083       .  S
C437        C438   1.404       .  A
C438        C439   1.520       .  S
C439        F443   1.384       .  S
C439        F444   1.382       .  S
C439        F445   1.384       .  S
C442        F446   1.383       .  S
C442        F447   1.383       .  S
C442        F448   1.385       .  S
C449        C450   1.394       .  A
C449        C454   1.402       .  A
C449        H456   1.083       .  S
C450        C451   1.418       .  A
C451        C452   1.402       .  A
C451        C458   1.513       .  S
C452        C453   1.403       .  A
C452        H457   1.085       .  S
C453        C454   1.417       .  A
C454        C455   1.499       .  S
C455        F459   1.379       .  S
C455        F460   1.382       .  S
C455        F461   1.384       .  S
C458        F462   1.383   1_455  S
C458        F463   1.383       .  S
C458        F464   1.380       .  S
C465        C466   1.404       .  A
C465        C470   1.405       .  A
C465        H472   1.084       .  S
C466        C467   1.412       .  A
C467        C468   1.407       .  A
C467        C474   1.515       .  S
C468        C469   1.403       .  A
C468        H473   1.082       .  S
C469        C470   1.411       .  A
C470        C471   1.516       .  S
C471        F475   1.384       .  S
C471        F476   1.383       .  S
C471        F477   1.382       .  S
C474        F478   1.382       .  S
C474        F479   1.382       .  S
C474        F480   1.378       .  S
C481        C482   1.401       .  A
C481        C486   1.402       .  A
C481        H488   1.083       .  S
C482        C483   1.408       .  A
C483        C484   1.398       .  A
C483        C490   1.521       .  S
C484        C485   1.408       .  A
C484        H489   1.083       .  S
C485        C486   1.417       .  A
C486        C487   1.520       .  S
C487        F491   1.384       .  S
C487        F492   1.384       .  S
C487        F493   1.380       .  S
C490        F494   1.383       .  S
C490        F495   1.382       .  S
C490        F496   1.381       .  S
C497        C498   1.410       .  A
C497        C502   1.400       .  A
C497        H504   1.079       .  S
C498        C499   1.433       .  A
C499        C500   1.399       .  A
C499        C506   1.522       .  S
C500        C501   1.393       .  A
C500        H505   1.084       .  S
C501        C502   1.405       .  A
C502        C503   1.514       .  S
C503        F507   1.382       .  S
C503        F508   1.375       .  S
C503        F509   1.385       .  S
C506        F510   1.383       .  S
C506        F511   1.382       .  S
C506        F512   1.386       .  S
C513        C514   1.403       .  A
C513        C518   1.398       .  A
C513        H520   1.083       .  S
C514        C515   1.399       .  A
C515        C516   1.399       .  A
C515        C522   1.515       .  S
C516        C517   1.409       .  A
C516        H521   1.083       .  S
C517        C518   1.409       .  A
C518        C519   1.518       .  S
C519        F523   1.383       .  S
C519        F524   1.379       .  S
C519        F525   1.383       .  S
C522        F526   1.381       .  S
C522        F527   1.383       .  S
C522        F528   1.382       .  S
C529        C530   1.398       .  A
C529        C534   1.405       .  A
C529        H536   1.083       .  S
C530        C531   1.409       .  A
C531        C532   1.397       .  A
C531        C538   1.520       .  S
C532        C533   1.410       .  A
C532        H537   1.082       .  S
C533        C534   1.425       .  A
C534        C535   1.520       .  S
C535        F539   1.383       .  S
C535        F540   1.377       .  S
C535        F541   1.384       .  S
C538        F542   1.380       .  S
C538        F543   1.383       .  S
C538        F544   1.385       .  S
C545        C546   1.397       .  A
C545        C550   1.406       .  A
C545        H552   1.084       .  S
C546        C547   1.425       .  A
C547        C548   1.398       .  A
C547        C554   1.512       .  S
C548        C549   1.392       .  A
C548        H553   1.085       .  S
C549        C550   1.420       .  A
C550        C551   1.514       .  S
C551       F1899   1.381       .  S
C551       F1900   1.379       .  S
C551       F1901   1.383       .  S
C554        F558   1.383       .  S
C554        F559   1.370       .  S
C554        F560   1.383       .  S
F555       C1895   1.381       .  S
F556       C1895   1.378       .  S
F557       C1895   1.383       .  S
C561        C562   1.410       .  A
C561        C566   1.399       .  A
C561        H568   1.082       .  S
C562        C563   1.435       .  A
C563        C564   1.408       .  A
C563        C570   1.523       .  S
C564        C565   1.396       .  A
C564        H569   1.083       .  S
C565        C566   1.410       .  A
C566        C567   1.517       .  S
C567        F571   1.383       .  S
C567        F572   1.385       .  S
C567        F573   1.380       .  S
C570        F574   1.374       .  S
C570        F575   1.383       .  S
C570        F576   1.385       .  S
C577        C578   1.391       .  A
C577        C582   1.403       .  A
C577        H584   1.084       .  S
C578        C579   1.409       .  A
C579        C580   1.400       .  A
C579        C586   1.517       .  S
C580        C581   1.410       .  A
C580        H585   1.082       .  S
C581        C582   1.435       .  A
C582        C583   1.523       .  S
C583        F587   1.386       .  S
C583        F588   1.383       .  S
C583        F589   1.377       .  S
C586        F590   1.381       .  S
C586        F591   1.380       .  S
C586        F592   1.385       .  S
C593        C594   1.405       .  A
C593        C598   1.404       .  A
C593        H600   1.084       .  S
C594        C595   1.412       .  A
C595        C596   1.400       .  A
C595        C602   1.508       .  S
C596        C597   1.395       .  A
C596        H601   1.084       .  S
C597        C598   1.413       .  A
C598        C599   1.517       .  S
C599        F603   1.383       .  S
C599        F604   1.381       .  S
C599        F605   1.385       .  S
C602        F606   1.383       .  S
C602        F607   1.381       .  S
C602        F608   1.381       .  S
C609        C610   1.411       .  A
C609        C614   1.402       .  A
C609        H616   1.080       .  S
C610        C611   1.419       .  A
C611        C612   1.408       .  A
C611        C618   1.518       .  S
C612        C613   1.404       .  A
C612        H617   1.084       .  S
C613        C614   1.409       .  A
C614        C615   1.522       .  S
C615        F619   1.382       .  S
C615        F620   1.382       .  S
C615        F621   1.383       .  S
C618        F622   1.379       .  S
C618        F623   1.383       .  S
C618        F624   1.386       .  S
C625        C626   1.400       .  A
C625        C630   1.405       .  A
C625        H632   1.081       .  S
C626        C627   1.423       .  A
C627        C628   1.400       .  A
C627        C634   1.520       .  S
C628        C629   1.397       .  A
C628        H633   1.085       .  S
C629        C630   1.413       .  A
C630        C631   1.521       .  S
C631        F635   1.379       .  S
C631        F636   1.381       .  S
C631        F637   1.378       .  S
C634        F638   1.379       .  S
C634        F639   1.383       .  S
C634        F640   1.382       .  S
C641        C642   1.406       .  A
C641        C646   1.405       .  A
C641        H648   1.084       .  S
C642        C643   1.415       .  A
C643        C644   1.404       .  A
C643        C650   1.513       .  S
C644        C645   1.398       .  A
C644        H649   1.083       .  S
C645        C646   1.414       .  A
C646        C647   1.520       .  S
C647        F651   1.385       .  S
C647        F652   1.383       .  S
C647        F653   1.383       .  S
C650        F654   1.380       .  S
C650        F655   1.382       .  S
C650        F656   1.383       .  S
C657        C658   1.411       .  A
C657        C662   1.406       .  A
C657        H664   1.079       .  S
C658        C659   1.417       .  A
C659        C660   1.406       .  A
C659        C666   1.519       .  S
C660        C661   1.407       .  A
C660        H665   1.081       .  S
C661        C662   1.410       .  A
C662        C663   1.519       .  S
C663        F667   1.384       .  S
C663        F668   1.383       .  S
C663        F669   1.381       .  S
C666        F670   1.379       .  S
C666        F671   1.382       .  S
C666        F672   1.386       .  S
C673        C678   1.420       .  A
C673        C849   1.503       .  S
C674        C675   1.424       .  A
C674        C778   1.510   1_556  S
C675        C676   1.425   1_556  A
C675        H680   1.085       .  S
C676        C717   1.503       .  S
C677        C678   1.419       .  A
C678        H679   1.085       .  S
C681       C2026   1.421       .  A
C681        C686   1.428       .  A
C681        C844   1.514       .  S
C682       C2025   1.419   1_545  A
C682        C683   1.425   1_655  A
C682        C783   1.506       .  S
C683        C684   1.428       .  A
C683        H688   1.085       .  S
C684       C2029   1.436   1_545  A
C684        C712   1.513       .  S
C685       C2028   1.434       .  A
C685        C686   1.422   1_455  A
C685        C915   1.520       .  S
C686        H687   1.085       .  S
Zr689       O690   2.437       .  S
Zr689       O691   2.423       .  S
Zr689       O692   2.455       .  S
Zr689       O695   2.517       .  S
Zr689       O697   2.386       .  S
Zr689       O698   2.378       .  S
Zr689       O699   2.425       .  S
Zr689       O700   2.389       .  S
O690        H746   0.990       .  S
O690        H754   0.991       .  S
O691        C711   1.281       .  A
O692        C713   1.288       .  A
O693        C712   1.284       .  A
O694       Zr702   2.409       .  S
O694        C713   1.279       .  A
O695        C712   1.301       .  A
O696       Zr704   2.463       .  S
O696        C711   1.289       .  A
O697       Zr702   2.391       .  S
O697       Zr704   2.352       .  S
O698       Zr704   2.376       .  S
O698        H733   0.966       .  S
O699       Zr702   2.402       .  S
O699        H736   0.965       .  S
Zr701       O726   2.443       .  S
Zr701       O720   2.445       .  S
Zr701       O728   2.428       .  S
Zr701       O716   2.495       .  S
Zr701       O707   2.424       .  S
Zr701       O710   2.384       .  S
Zr702       O721   2.436       .  S
Zr702       O714   2.436       .  S
Zr702       O715   2.452       .  S
Zr702       O708   2.396       .  S
Zr702       O709   2.382       .  S
Zr703       O705   2.436       .  S
Zr703       O727   2.437       .  S
Zr703       O729   2.428       .  S
Zr703       O707   2.396       .  S
Zr703       O710   2.367       .  S
Zr704       O730   2.439       .  S
Zr704       O731   2.440       .  S
Zr704       O706   2.418       .  S
Zr704       O708   2.415       .  S
O705        H742   0.990       .  S
O706        H737   0.990       .  S
O706        H751   0.985       .  S
O708        H734   0.961       .  S
O710       Zr719   2.379   1_556  S
O710        H735   0.963       .  S
C711       C1330   1.491       .  S
C713       C1298   1.472       .  S
O714        H750   0.990       .  S
O716        C717   1.293   1_556  A
O718        H747   0.990       .  S
Zr719       O723   2.414       .  S
Zr719       O724   2.435   1_554  S
O720        C725   1.284       .  A
O721        H738   0.990       .  S
O721        H753   0.990       .  S
O723        H743   0.989   1_554  S
O723        H752   0.987   1_545  S
O724        C725   1.282       .  A
C725       C1282   1.485       .  S
O726        H745   0.988       .  S
O726        H749   0.990       .  S
O727        H741   0.990       .  S
O728        C732   1.283       .  A
O729        C732   1.285       .  A
O730        H740   0.990       .  S
O731        H744   0.990       .  S
C732       C1314   1.472       .  S
Zr755       O756   2.432       .  S
Zr755       O757   2.406       .  S
Zr755       O758   2.453       .  S
Zr755       O761   2.530       .  S
Zr755       O763   2.383       .  S
Zr755       O765   2.433       .  S
O756        H812   0.988       .  S
O756        H820   0.989       .  S
O757        C777   1.274       .  A
O758        C779   1.287       .  A
O759       Zr769   2.418       .  S
O760       Zr768   2.417       .  S
O760        C779   1.283       .  A
O761        C778   1.303   1_556  A
O762        C777   1.288       .  A
O763       Zr768   2.382       .  S
O764       Zr769   2.375       .  S
O764       Zr770   2.372       .  S
O765       Zr768   2.410       .  S
O765        H802   0.965       .  S
O766       Zr769   2.401       .  S
O766       Zr785   2.428       .  S
Zr767       O792   2.436       .  S
Zr767       O786   2.409       .  S
Zr767       O794   2.476       .  S
Zr767       O782   2.490       .  S
Zr767       O773   2.418       .  S
Zr767       O774   2.409       .  S
Zr767       O775   2.381       .  S
Zr767       O776   2.368       .  S
Zr768       O787   2.438       .  S
Zr768       O780   2.437       .  S
Zr769       O771   2.436       .  S
Zr769       O793   2.436       .  S
Zr769       O795   2.400       .  S
Zr769       O773   2.405       .  S
Zr769       O776   2.368       .  S
Zr770       O796   2.436       .  S
Zr770       O797   2.433       .  S
Zr770       O773   2.408       .  S
Zr770       O774   2.412       .  S
O771        H808   0.990       .  S
O772        H803   0.989       .  S
O772        H817   0.989       .  S
O774        H800   0.965       .  S
O775       Zr785   2.364       .  S
O776       Zr785   2.349       .  S
O776        H801   0.954       .  S
C777       C1234   1.497       .  S
C779       C1266   1.479       .  S
O780        H816   0.990       .  S
O781        C783   1.287       .  A
O782        C783   1.294       .  A
O784       Zr785   2.437       .  S
O784        H813   0.990       .  S
Zr785       O788   2.437       .  S
Zr785       O789   2.421       .  S
Zr785       O790   2.443       .  S
O786        C791   1.275       .  A
O787        H804   0.990       .  S
O787        H819   0.990       .  S
O788        H805   0.990       .  S
O789        H809   0.990       .  S
O789        H818   0.990       .  S
O790        C791   1.286       .  A
C791       C1253   1.491       .  S
O792        H811   0.989       .  S
O792        H815   0.988       .  S
O793        H807   0.990       .  S
O793        H814   0.990       .  S
O794        C798   1.291       .  A
O795        C798   1.278       .  A
O797        H810   0.990       .  S
C798       C1218   1.472       .  S
Zr821       O822   2.418       .  S
Zr821       O823   2.398       .  S
Zr821       O824   2.437       .  S
Zr821       O827   2.524       .  S
Zr821       O829   2.380       .  S
Zr821       O830   2.375       .  S
Zr821       O831   2.426       .  S
Zr821       O832   2.384       .  S
O822        H878   0.989       .  S
O822        H886   0.988       .  S
O823        C843   1.278       .  A
O824        C845   1.290       .  A
O825        C844   1.283       .  A
O826       Zr834   2.420       .  S
O826        C845   1.282       .  A
O827        C844   1.302       .  A
O828       Zr836   2.437       .  S
O828        C843   1.285       .  A
O829       Zr834   2.381       .  S
O829       Zr836   2.334       .  S
O830       Zr836   2.371       .  S
O830        H865   0.966       .  S
O831       Zr834   2.406       .  S
O831        H868   0.966       .  S
Zr833       O858   2.420       .  S
Zr833       O852   2.421       .  S
Zr833       O860   2.407       .  S
Zr833       O848   2.457       .  S
Zr833       O842   2.383       .  S
Zr834       O853   2.434       .  S
Zr834       O846   2.434       .  S
Zr834       O847   2.469       .  S
Zr834       O840   2.389       .  S
Zr834       O841   2.361       .  S
Zr835       O837   2.436       .  S
Zr835       O859   2.435   1_556  S
Zr835       O861   2.412       .  S
Zr835       O842   2.369       .  S
Zr836       O862   2.439       .  S
Zr836       O863   2.434       .  S
Zr836       O838   2.438       .  S
Zr836       O839   2.397       .  S
Zr836       O840   2.408       .  S
O837        H874   0.990       .  S
O838        H869   0.990       .  S
O838        H883   0.990       .  S
O840        H866   0.965       .  S
O842       Zr851   2.352       .  S
O842        H867   0.962       .  S
C843       C1205   1.490       .  S
C845       C1170   1.492       .  S
O846        H882   0.990       .  S
O847        C849   1.293       .  A
O850        H879   0.991       .  S
Zr851       O855   2.436       .  S
Zr851       O856   2.421       .  S
O852        C857   1.283       .  A
O853        H870   0.990       .  S
O853        H885   0.990       .  S
O855        H875   0.990       .  S
O855        H884   0.990       .  S
O856        C857   1.283       .  A
C857       C1157   1.473       .  S
O858        H877   0.989       .  S
O858        H881   0.988   1_556  S
O859        H873   0.990   1_554  S
O860        C864   1.280       .  A
O861        C864   1.282       .  A
O862        H872   0.991       .  S
O863        H876   0.990       .  S
C864       C1186   1.443       .  S
Zr887       O888   2.438       .  S
Zr887       O889   2.427       .  S
Zr887       O890   2.411       .  S
Zr887       O893   2.503       .  S
Zr887       O895   2.380       .  S
O888        H944   0.986       .  S
O888        H952   0.989       .  S
O889        C909   1.281       .  A
O890        C911   1.280       .  A
O891       Zr901   2.457       .  S
O892       Zr900   2.455       .  S
O892        C911   1.290       .  A
O893        C910   1.296   1_556  A
O894       Zr902   2.424       .  S
O894        C909   1.282       .  A
O895       Zr900   2.393       .  S
O895       Zr902   2.337       .  S
O896       Zr901   2.381       .  S
O897       Zr917   2.387       .  S
O898       Zr901   2.397       .  S
O898       Zr917   2.408       .  S
Zr899       O924   2.433       .  S
Zr899       O918   2.474       .  S
Zr899       O926   2.421       .  S
Zr899       O914   2.472       .  S
Zr899       O905   2.425       .  S
Zr899       O906   2.415       .  S
Zr899       O907   2.369       .  S
Zr899       O908   2.376       .  S
Zr900       O912   2.434       .  S
Zr901       O903   2.433       .  S
Zr901       O925   2.435       .  S
Zr901       O927   2.436       .  S
Zr901       O905   2.408       .  S
Zr901       O908   2.388       .  S
Zr902       O904   2.437       .  S
O903        H940   0.990       .  S
O904        H935   0.990       .  S
O904        H949   0.990       .  S
O906        H932   0.965       .  S
O907       Zr917   2.376       .  S
O908       Zr917   2.369       .  S
O908        H933   0.964       .  S
C909       C1106   1.498       .  S
C911       C1141   1.467       .  S
O912        H948   0.990       .  S
O913        C915   1.297       .  A
O914        C915   1.289       .  A
O916       Zr917   2.428       .  S
O916        H945   0.989       .  S
Zr917       O920   2.439       .  S
Zr917       O921   2.444       .  S
Zr917       O922   2.384       .  S
O918        C923   1.292       .  A
O920        H937   0.990       .  S
O921        H941   0.988       .  S
O921        H950   0.990       .  S
O922        C923   1.274       .  A
C923       C1125   1.482       .  S
O924        H943   0.989       .  S
O924        H947   0.989       .  S
O925        H939   0.990       .  S
O925        H946   0.990       .  S
O926        C930   1.285       .  A
O927        C930   1.284       .  A
O929        H942   0.990       .  S
C930       C1090   1.498       .  S
N953        C958   1.347       .  A
N953        C957   1.345   1_455  A
N953        H985   1.042       .  S
N954        C961   1.344       .  A
N954        C962   1.342       .  A
N955        C960   1.354       .  A
N955        C959   1.356   1_455  A
N955        H986   1.038       .  S
N956        C963   1.348       .  A
N956        C964   1.341       .  A
C957        C965   1.389       .  A
C957        C973   1.406       .  A
C958        C974   1.402       .  A
C958        C966   1.385       .  A
C959        C967   1.386       .  A
C959        C976   1.419       .  A
C960        C975   1.422       .  A
C960        C968   1.390       .  A
C961        C973   1.399       .  A
C961        C969   1.384       .  A
C962        C976   1.402       .  A
C962        C970   1.387       .  A
C963        C971   1.383       .  A
C963        C974   1.404       .  A
C964        C972   1.389       .  A
C964        C975   1.408       .  A
C965        C966   1.363   1_655  A
C965        H977   1.077       .  S
C966        H978   1.081       .  S
C967        C968   1.371   1_655  A
C967        H979   1.082       .  S
C968        H980   1.082       .  S
C969        C970   1.381       .  A
C969        H981   1.082       .  S
C970        H982   1.082       .  S
C971        C972   1.385       .  A
C971        H983   1.082       .  S
C972        H984   1.082       .  S
C973       C1250   1.470       .  S
C974       C1333   1.482       .  S
C975       C1317   1.477       .  S
C976       C1269   1.481       .  S
N987        C992   1.349   1_655  A
N987        C991   1.354       .  A
N987       H1019   1.042       .  S
N988        C995   1.340       .  A
N988        C996   1.340       .  A
N989        C994   1.346   1_655  A
N989        C993   1.342       .  A
N989       H1020   1.041       .  S
N990        C997   1.342       .  A
N990        C998   1.347       .  A
C991        C999   1.389       .  A
C991       C1007   1.416       .  A
C992       C1008   1.410       .  A
C992       C1000   1.385       .  A
C993       C1001   1.386       .  A
C993       C1010   1.399       .  A
C994       C1009   1.405       .  A
C994       C1002   1.389       .  A
C995       C1007   1.400       .  A
C995       C1003   1.385       .  A
C996       C1010   1.399       .  A
C996       C1004   1.385       .  A
C997       C1005   1.388       .  A
C997       C1008   1.409       .  A
C998       C1006   1.385       .  A
C998       C1009   1.409       .  A
C999       C1000   1.365   1_655  A
C999       H1011   1.078       .  S
C1000      H1012   1.082       .  S
C1001      C1002   1.369   1_655  A
C1001      H1013   1.083       .  S
C1002      H1014   1.082       .  S
C1003      C1004   1.382       .  A
C1003      H1015   1.080       .  S
C1004      H1016   1.082       .  S
C1005      C1006   1.388       .  A
C1005      H1017   1.082       .  S
C1006      H1018   1.082       .  S
C1007      C1202   1.478       .  S
C1008      C1122   1.482       .  S
C1009      C1138   1.481       .  S
C1010      C1189   1.465       .  S
N1021      C1026   1.349       .  A
N1021      C1025   1.349       .  A
N1021      H1053   1.039       .  S
N1022      C1029   1.345       .  A
N1022      C1030   1.348       .  A
N1023      C1028   1.350       .  A
N1023      C1027   1.351       .  A
N1023      H1054   1.037       .  S
N1024      C1031   1.341       .  A
N1024      C1032   1.341       .  A
C1025      C1033   1.389       .  A
C1025      C1041   1.409       .  A
C1026      C1042   1.409       .  A
C1026      C1034   1.387       .  A
C1027      C1035   1.385       .  A
C1027      C1044   1.411       .  A
C1028      C1043   1.416       .  A
C1028      C1036   1.388       .  A
C1029      C1041   1.405       .  A
C1029      C1037   1.383       .  A
C1030      C1044   1.407       .  A
C1030      C1038   1.385       .  A
C1031      C1039   1.386       .  A
C1031      C1042   1.397       .  A
C1032      C1040   1.386       .  A
C1032      C1043   1.399       .  A
C1033      C1034   1.369       .  A
C1033      H1045   1.081       .  S
C1034      H1046   1.082       .  S
C1035      C1036   1.369       .  A
C1035      H1047   1.082       .  S
C1036      H1048   1.081       .  S
C1037      C1038   1.379       .  A
C1037      H1049   1.077       .  S
C1038      H1050   1.082       .  S
C1039      C1040   1.378       .  A
C1039      H1051   1.082       .  S
C1040      H1052   1.082       .  S
C1041      C1109   1.476       .  S
C1042      C1154   1.466       .  S
C1043      C1173   1.468       .  S
C1044      C1093   1.485       .  S
N1055      C1060   1.352       .  A
N1055      C1059   1.350       .  A
N1055      H1087   1.039       .  S
N1056      C1063   1.344       .  A
N1056      C1064   1.347       .  A
N1057      C1062   1.351       .  A
N1057      C1061   1.351       .  A
N1057      H1088   1.041       .  S
N1058      C1065   1.344       .  A
N1058      C1066   1.343       .  A
C1059      C1067   1.392       .  A
C1059      C1075   1.417       .  A
C1060      C1076   1.410       .  A
C1060      C1068   1.384       .  A
C1061      C1069   1.384       .  A
C1061      C1078   1.407       .  A
C1062      C1077   1.413       .  A
C1062      C1070   1.389       .  A
C1063      C1075   1.409       .  A
C1063      C1071   1.387       .  A
C1064      C1078   1.404       .  A
C1064      C1072   1.384       .  A
C1065      C1073   1.388       .  A
C1065      C1076   1.407       .  A
C1066      C1074   1.385       .  A
C1066      C1077   1.401       .  A
C1067      C1068   1.373       .  A
C1067      H1079   1.081       .  S
C1068      H1080   1.083       .  S
C1069      C1070   1.360       .  A
C1069      H1081   1.081       .  S
C1070      H1082   1.079       .  S
C1071      C1072   1.382       .  A
C1071      H1083   1.080       .  S
C1072      H1084   1.082       .  S
C1073      C1074   1.380       .  A
C1073      H1085   1.082       .  S
C1074      H1086   1.082       .  S
C1075      C1301   1.477       .  S
C1076      C1221   1.483       .  S
C1077      C1237   1.475       .  S
C1078      C1285   1.483       .  S
C1089      C1090   1.412       .  A
C1089      C1094   1.401       .  A
C1089      H1096   1.084       .  S
C1090      C1091   1.427       .  A
C1091      C1092   1.405       .  A
C1091      C1098   1.521       .  S
C1092      C1093   1.402       .  A
C1092      H1097   1.084       .  S
C1093      C1094   1.411       .  A
C1094      C1095   1.517       .  S
C1095      F1099   1.378       .  S
C1095      F1100   1.381       .  S
C1095      F1101   1.379       .  S
C1098      F1102   1.383       .  S
C1098      F1103   1.382       .  S
C1098      F1104   1.386       .  S
C1105      C1106   1.417       .  A
C1105      C1110   1.404       .  A
C1105      H1112   1.082       .  S
C1106      C1107   1.427       .  A
C1107      C1108   1.406       .  A
C1107      C1114   1.521       .  S
C1108      C1109   1.399       .  A
C1108      H1113   1.083       .  S
C1109      C1110   1.406       .  A
C1110      C1111   1.522       .  S
C1111      F1115   1.383       .  S
C1111      F1116   1.382       .  S
C1111      F1117   1.384       .  S
C1114      F1118   1.383       .  S
C1114      F1119   1.383       .  S
C1114      F1120   1.385       .  S
C1121      C1122   1.396       .  A
C1121      C1126   1.402       .  A
C1121      H1128   1.083       .  S
C1122      C1123   1.420       .  A
C1123      C1124   1.400       .  A
C1123      C1130   1.515       .  S
C1124      C1125   1.402       .  A
C1124      H1129   1.085       .  S
C1125      C1126   1.415       .  A
C1126      C1127   1.499       .  S
C1127      F1131   1.380       .  S
C1127      F1132   1.381       .  S
C1127      F1133   1.384       .  S
C1130      F1134   1.383   1_455  S
C1130      F1135   1.383       .  S
C1130      F1136   1.381       .  S
C1137      C1138   1.407       .  A
C1137      C1142   1.406       .  A
C1137      H1144   1.084       .  S
C1138      C1139   1.412       .  A
C1139      C1140   1.406       .  A
C1139      C1146   1.514       .  S
C1140      C1141   1.402       .  A
C1140      H1145   1.082       .  S
C1141      C1142   1.409       .  A
C1142      C1143   1.517       .  S
C1143      F1147   1.383       .  S
C1143      F1148   1.383       .  S
C1143      F1149   1.381       .  S
C1146      F1150   1.382       .  S
C1146      F1151   1.380       .  S
C1146      F1152   1.380       .  S
C1153      C1154   1.400       .  A
C1153      C1158   1.402       .  A
C1153      H1160   1.083       .  S
C1154      C1155   1.406       .  A
C1155      C1156   1.398       .  A
C1155      C1162   1.520       .  S
C1156      C1157   1.408       .  A
C1156      H1161   1.083       .  S
C1157      C1158   1.416       .  A
C1158      C1159   1.516       .  S
C1159      F1163   1.384       .  S
C1159      F1164   1.384       .  S
C1159      F1165   1.380       .  S
C1162      F1166   1.382       .  S
C1162      F1167   1.382       .  S
C1162      F1168   1.381       .  S
C1169      C1170   1.412       .  A
C1169      C1174   1.402       .  A
C1169      H1176   1.079       .  S
C1170      C1171   1.433       .  A
C1171      C1172   1.396       .  A
C1171      C1178   1.520       .  S
C1172      C1173   1.391       .  A
C1172      H1177   1.084       .  S
C1173      C1174   1.404       .  A
C1174      C1175   1.517       .  S
C1175      F1179   1.382       .  S
C1175      F1180   1.378       .  S
C1175      F1181   1.384       .  S
C1178      F1182   1.383       .  S
C1178      F1183   1.383       .  S
C1178      F1184   1.386       .  S
C1185      C1186   1.400       .  A
C1185      C1190   1.395       .  A
C1185      H1192   1.084       .  S
C1186      C1187   1.400       .  A
C1187      C1188   1.399       .  A
C1187      C1194   1.517       .  S
C1188      C1189   1.411       .  A
C1188      H1193   1.083       .  S
C1189      C1190   1.409       .  A
C1190      C1191   1.520       .  S
C1191      F1195   1.381       .  S
C1191      F1196   1.378       .  S
C1191      F1197   1.383       .  S
C1194      F1198   1.382       .  S
C1194      F1199   1.384       .  S
C1194      F1200   1.381       .  S
C1201      C1202   1.402       .  A
C1201      C1206   1.408       .  A
C1201      H1208   1.083       .  S
C1202      C1203   1.411       .  A
C1203      C1204   1.399       .  A
C1203      C1210   1.522       .  S
C1204      C1205   1.410       .  A
C1204      H1209   1.082       .  S
C1205      C1206   1.424       .  A
C1206      C1207   1.520       .  S
C1207      F1211   1.382       .  S
C1207      F1212   1.378       .  S
C1207      F1213   1.384       .  S
C1210      F1214   1.380       .  S
C1210      F1215   1.383       .  S
C1210      F1216   1.385       .  S
C1217      C1218   1.398       .  A
C1217      C1222   1.406       .  A
C1217      H1224   1.084       .  S
C1218      C1219   1.426       .  A
C1219      C1220   1.400       .  A
C1219      C1226   1.515       .  S
C1220      C1221   1.394       .  A
C1220      H1225   1.085       .  S
C1221      C1222   1.418       .  A
C1222      C1223   1.515       .  S
C1223      F2571   1.379       .  S
C1223      F2572   1.376       .  S
C1223      F2573   1.384       .  S
C1226      F1230   1.384       .  S
C1226      F1231   1.371       .  S
C1226      F1232   1.383       .  S
F1227      C2567   1.381       .  S
F1228      C2567   1.378       .  S
F1229      C2567   1.383       .  S
C1233      C1234   1.410       .  A
C1233      C1238   1.399       .  A
C1233      H1240   1.081       .  S
C1234      C1235   1.435       .  A
C1235      C1236   1.407       .  A
C1235      C1242   1.522       .  S
C1236      C1237   1.396       .  A
C1236      H1241   1.083       .  S
C1237      C1238   1.407       .  A
C1238      C1239   1.517       .  S
C1239      F1243   1.383       .  S
C1239      F1244   1.384       .  S
C1239      F1245   1.382       .  S
C1242      F1246   1.373       .  S
C1242      F1247   1.383       .  S
C1242      F1248   1.385       .  S
C1249      C1250   1.390       .  A
C1249      C1254   1.402       .  A
C1249      H1256   1.083       .  S
C1250      C1251   1.410       .  A
C1251      C1252   1.402       .  A
C1251      C1258   1.518       .  S
C1252      C1253   1.410       .  A
C1252      H1257   1.082       .  S
C1253      C1254   1.433       .  A
C1254      C1255   1.523       .  S
C1255      F1259   1.385       .  S
C1255      F1260   1.384       .  S
C1255      F1261   1.374       .  S
C1258      F1262   1.382       .  S
C1258      F1263   1.382       .  S
C1258      F1264   1.384       .  S
C1265      C1266   1.407       .  A
C1265      C1270   1.406       .  A
C1265      H1272   1.084       .  S
C1266      C1267   1.415       .  A
C1267      C1268   1.402       .  A
C1267      C1274   1.512       .  S
C1268      C1269   1.397       .  A
C1268      H1273   1.083       .  S
C1269      C1270   1.414       .  A
C1270      C1271   1.518       .  S
C1271      F1275   1.383       .  S
C1271      F1276   1.381       .  S
C1271      F1277   1.385       .  S
C1274      F1278   1.383       .  S
C1274      F1279   1.381       .  S
C1274      F1280   1.383       .  S
C1281      C1282   1.408       .  A
C1281      C1286   1.403       .  A
C1281      H1288   1.080       .  S
C1282      C1283   1.417       .  A
C1283      C1284   1.410       .  A
C1283      C1290   1.519       .  S
C1284      C1285   1.407       .  A
C1284      H1289   1.083       .  S
C1285      C1286   1.412       .  A
C1286      C1287   1.521       .  S
C1287      F1291   1.384       .  S
C1287      F1292   1.381       .  S
C1287      F1293   1.383       .  S
C1290      F1294   1.380       .  S
C1290      F1295   1.383       .  S
C1290      F1296   1.385       .  S
C1297      C1298   1.401       .  A
C1297      C1302   1.406       .  A
C1297      H1304   1.081       .  S
C1298      C1299   1.423       .  A
C1299      C1300   1.401       .  A
C1299      C1306   1.518       .  S
C1300      C1301   1.397       .  A
C1300      H1305   1.085       .  S
C1301      C1302   1.414       .  A
C1302      C1303   1.521       .  S
C1303      F1307   1.379       .  S
C1303      F1308   1.381       .  S
C1303      F1309   1.379       .  S
C1306      F1310   1.378       .  S
C1306      F1311   1.383       .  S
C1306      F1312   1.383       .  S
C1313      C1314   1.402       .  A
C1313      C1318   1.402       .  A
C1313      H1320   1.084       .  S
C1314      C1315   1.415       .  A
C1315      C1316   1.405       .  A
C1315      C1322   1.513       .  S
C1316      C1317   1.400       .  A
C1316      H1321   1.083       .  S
C1317      C1318   1.413       .  A
C1318      C1319   1.518       .  S
C1319      F1323   1.385       .  S
C1319      F1324   1.382       .  S
C1319      F1325   1.383       .  S
C1322      F1326   1.381       .  S
C1322      F1327   1.382       .  S
C1322      F1328   1.383       .  S
C1329      C1330   1.412       .  A
C1329      C1334   1.405       .  A
C1329      H1336   1.078       .  S
C1330      C1331   1.420       .  A
C1331      C1332   1.407       .  A
C1331      C1338   1.517       .  S
C1332      C1333   1.405       .  A
C1332      H1337   1.085       .  S
C1333      C1334   1.409       .  A
C1334      C1335   1.518       .  S
C1335      F1339   1.384       .  S
C1335      F1340   1.382       .  S
C1335      F1341   1.380       .  S
C1338      F1342   1.378       .  S
C1338      F1343   1.382       .  S
C1338      F1344   1.385       .  S
C1345      C2018   1.424   1_554  A
C1345      C1350   1.418       .  A
C1345      C1521   1.505       .  S
C1346      C2017   1.424       .  A
C1346      C1347   1.424       .  A
C1346      C1450   1.509       .  S
C1347      C1348   1.426       .  A
C1347      H1352   1.085       .  S
C1348      C2021   1.431       .  A
C1348      C1389   1.505       .  S
C1349      C2020   1.426       .  A
C1349      C1350   1.419       .  A
C1349      C2254   1.513       .  S
C1350      H1351   1.085       .  S
C1353      C1358   1.429       .  A
C1353      C1516   1.514       .  S
C1354      C1355   1.425   1_655  A
C1354      C1455   1.509       .  S
C1355      C1356   1.429       .  A
C1355      H1360   1.085       .  S
C1356      C1384   1.513       .  S
C1357      C1358   1.423   1_455  A
C1357      C1587   1.525       .  S
C1358      H1359   1.085       .  S
Zr1361     O1362   2.438       .  S
Zr1361     O1363   2.415       .  S
Zr1361     O1364   2.456       .  S
Zr1361     O1367   2.521       .  S
Zr1361     O1369   2.386       .  S
Zr1361     O1370   2.379       .  S
Zr1361     O1371   2.427       .  S
Zr1361     O1372   2.388       .  S
O1362      H1418   0.990       .  S
O1362      H1426   0.991       .  S
O1363      C1383   1.279       .  A
O1364      C1385   1.288       .  A
O1365     Zr2047   2.435   1_554  S
O1365      C1384   1.284       .  A
O1366     Zr1374   2.410       .  S
O1366      C1385   1.279       .  A
O1367      C1384   1.302       .  A
O1368     Zr1376   2.462       .  S
O1368      C1383   1.289       .  A
O1369     Zr1374   2.387       .  S
O1369     Zr1376   2.353       .  S
O1370     Zr2047   2.380   1_554  S
O1370     Zr1376   2.377       .  S
O1370      H1405   0.966       .  S
O1371     Zr1374   2.406       .  S
O1371     Zr2063   2.405       .  S
O1371      H1408   0.965       .  S
O1372     Zr2047   2.398   1_554  S
O1372     Zr2063   2.406       .  S
Zr1373     O1398   2.444       .  S
Zr1373     O1392   2.440       .  S
Zr1373     O1400   2.426       .  S
Zr1373     O1388   2.491       .  S
Zr1373     O1379   2.424       .  S
Zr1373     O2052   2.398       .  S
Zr1373     O2053   2.377       .  S
Zr1373     O1382   2.386       .  S
Zr1374     O1393   2.435       .  S
Zr1374     O1386   2.437       .  S
Zr1374     O1387   2.444       .  S
Zr1374     O1380   2.400       .  S
Zr1374     O1381   2.386       .  S
Zr1375     O1377   2.438       .  S
Zr1375     O1399   2.437       .  S
Zr1375     O2037   2.437       .  S
Zr1375     O1401   2.436       .  S
Zr1375     O2042   2.385       .  S
Zr1375     O2044   2.403       .  S
Zr1375     O1379   2.397       .  S
Zr1375     O1382   2.371       .  S
Zr1376     O1402   2.438       .  S
Zr1376     O1403   2.440   1_554  S
Zr1376     O1378   2.423       .  S
Zr1376     O2051   2.397   1_554  S
Zr1376     O1380   2.418       .  S
O1377      H1414   0.990       .  S
O1378      H1409   0.990       .  S
O1378      H1423   0.987       .  S
O1379     Zr2048   2.403       .  S
O1380     Zr2045   2.397   1_554  S
O1380      H1406   0.963       .  S
O1381     Zr2045   2.375   1_554  S
O1381     Zr2063   2.389       .  S
O1382     Zr1391   2.376       .  S
O1382      H1407   0.963       .  S
C1383      C2002   1.486       .  S
C1385      C1970   1.473       .  S
O1386      H1422   0.991       .  S
O1387      C2061   1.284       .  A
O1388      C1389   1.291       .  A
C1389      O2059   1.286       .  A
O1390     Zr2063   2.442       .  S
O1390      H1419   0.990       .  S
Zr1391     O2062   2.441       .  S
Zr1391     O2066   2.439       .  S
Zr1391     O1395   2.414       .  S
Zr1391     O1396   2.430       .  S
Zr1391     O2043   2.400       .  S
Zr1391     O2044   2.405       .  S
Zr1391     O2053   2.385       .  S
O1392      C1397   1.283       .  A
O1393      H1410   0.990       .  S
O1393      H1425   0.990       .  S
O1394     Zr2063   2.438       .  S
O1394      H2083   0.990   1_554  S
O1395      H1415   0.990       .  S
O1395      H1424   0.987       .  S
O1396      C1397   1.281       .  A
C1397      C1954   1.482       .  S
O1398      H1417   0.988       .  S
O1398      H1421   0.990       .  S
O1399      H1413   0.990       .  S
O1399      H2092   0.990       .  S
O1400      C1404   1.282       .  A
O1401      C1404   1.286       .  A
O1402      H1412   0.990       .  S
O1403      H1416   0.988   1_556  S
C1404      C1986   1.474       .  S
H1411      O2066   0.990       .  S
H1420      O2071   0.990       .  S
Zr1427     O1428   2.433       .  S
Zr1427     O1429   2.410       .  S
Zr1427     O1430   2.443       .  S
Zr1427     O1433   2.526       .  S
Zr1427     O1435   2.381       .  S
Zr1427     O2108   2.373       .  S
Zr1427     O1437   2.435       .  S
Zr1427     O2110   2.396       .  S
O1428      H1484   0.989       .  S
O1428      H1492   0.989       .  S
O1429      C1449   1.275       .  A
O1430      C1451   1.286       .  A
O1431     Zr1441   2.409       .  S
O1431      C2122   1.278       .  A
O1432     Zr1440   2.418       .  S
O1432      C1451   1.283       .  A
O1433      C1450   1.302       .  A
O1434     Zr2114   2.446       .  S
O1434      C1449   1.287       .  A
O1435     Zr1440   2.381       .  S
O1435     Zr2114   2.330       .  S
O1436     Zr2099   2.379   1_554  S
O1436     Zr1441   2.386       .  S
O1436     Zr1442   2.370   1_554  S
O1436      H2143   0.965   1_554  S
O1437     Zr1440   2.414       .  S
O1437     Zr2129   2.394       .  S
O1437      H1474   0.965       .  S
O1438     Zr2099   2.397   1_554  S
O1438     Zr1441   2.402       .  S
O1438     Zr1457   2.422       .  S
Zr1439     O1464   2.438       .  S
Zr1439     O1458   2.401       .  S
Zr1439     O1466   2.463       .  S
Zr1439     O1454   2.492       .  S
Zr1439     O1445   2.418       .  S
Zr1439     O1446   2.399       .  S
Zr1439     O1447   2.380       .  S
Zr1439     O1448   2.375       .  S
Zr1440     O1459   2.438       .  S
Zr1440     O1452   2.437       .  S
Zr1440     O2125   2.457       .  S
Zr1440     O2118   2.410       .  S
Zr1440     O2119   2.378       .  S
Zr1441     O1443   2.438       .  S
Zr1441     O1465   2.438       .  S
Zr1441     O1467   2.406       .  S
Zr1441     O1445   2.407       .  S
Zr1441     O1448   2.368       .  S
Zr1442     O1468   2.438       .  S
Zr1442     O1469   2.435   1_556  S
Zr1442     O2116   2.429       .  S
Zr1442     O2106   2.454       .  S
Zr1442     O2107   2.338       .  S
Zr1442     O1445   2.405   1_556  S
Zr1442     O1446   2.413   1_556  S
O1443      H1480   0.990       .  S
O1444     Zr2114   2.430       .  S
O1444      H1475   0.989       .  S
O1444      H1489   0.989       .  S
O1446     Zr2112   2.407   1_554  S
O1446      H1472   0.965       .  S
O1447     Zr2112   2.374   1_554  S
O1447     Zr1457   2.371       .  S
O1448     Zr1457   2.350       .  S
O1448      H1473   0.956       .  S
C1449      C1906   1.496       .  S
C1450      O2103   1.279       .  A
C1451      C1938   1.478       .  S
O1452      H1488   0.990       .  S
O1453     Zr2112   2.453   1_554  S
O1453      C1455   1.288       .  A
O1454      C1455   1.294       .  A
O1456     Zr1457   2.435       .  S
O1456      H1485   0.990       .  S
Zr1457     O1460   2.437       .  S
Zr1457     O1461   2.424       .  S
Zr1457     O1462   2.440       .  S
Zr1457     O2109   2.393   1_554  S
O1458      C1463   1.273       .  A
O1459      H1476   0.990       .  S
O1459      H1491   0.990       .  S
O1460      H1477   0.990       .  S
O1461      H1481   0.990       .  S
O1461      H1490   0.989       .  S
O1462      C1463   1.286       .  A
C1463      C1925   1.487       .  S
O1464      H1483   0.989       .  S
O1464      H1487   0.988       .  S
O1465      H1479   0.990       .  S
O1465      H1486   0.990       .  S
O1466      C1470   1.288       .  A
O1467      C1470   1.279       .  A
O1468      H2150   0.990       .  S
O1469      H1482   0.990       .  S
C1470      C1890   1.468       .  S
H1471      O2108   0.966       .  S
H1478      O2140   0.990       .  S
Zr1493     O1494   2.420       .  S
Zr1493     O1495   2.384       .  S
Zr1493     O1496   2.428       .  S
Zr1493     O1499   2.512       .  S
Zr1493     O1501   2.379       .  S
Zr1493     O1502   2.376       .  S
Zr1493     O1503   2.420       .  S
Zr1493     O1504   2.380       .  S
O1494      H1550   0.990       .  S
O1494      H1558   0.988       .  S
O1495      C1515   1.275       .  A
O1496      C1517   1.288       .  A
O1497     Zr2179   2.430   1_554  S
O1497      C1516   1.285       .  A
O1498     Zr1506   2.431       .  S
O1498      C1517   1.284       .  A
O1499      C1516   1.300       .  A
O1500     Zr1508   2.435       .  S
O1500      C1515   1.285       .  A
O1501     Zr1506   2.376       .  S
O1501     Zr1508   2.335       .  S
O1502     Zr2179   2.378   1_554  S
O1502     Zr1508   2.375       .  S
O1502      H1537   0.966       .  S
O1503     Zr1506   2.405       .  S
O1503     Zr2195   2.383   1_554  S
O1503      H1540   0.966       .  S
O1504     Zr2179   2.399   1_554  S
O1504     Zr2195   2.422   1_554  S
Zr1505     O1530   2.422       .  S
Zr1505     O1524   2.438       .  S
Zr1505     O1532   2.418       .  S
Zr1505     O1520   2.459       .  S
Zr1505     O2183   2.409       .  S
Zr1505     O2184   2.405       .  S
Zr1505     O2185   2.371       .  S
Zr1505     O1514   2.377       .  S
Zr1506     O1525   2.431       .  S
Zr1506     O1518   2.435       .  S
Zr1506     O1519   2.470       .  S
Zr1506     O1512   2.390       .  S
Zr1506     O1513   2.362       .  S
Zr1507     O1509   2.434       .  S
Zr1507     O1531   2.431       .  S
Zr1507     O2169   2.422       .  S
Zr1507     O1533   2.407       .  S
Zr1507     O2174   2.377       .  S
Zr1507     O2176   2.391       .  S
Zr1507     O2183   2.392       .  S
Zr1507     O1514   2.368       .  S
Zr1508     O1534   2.440       .  S
Zr1508     O1535   2.431       .  S
Zr1508     O1510   2.441       .  S
Zr1508     O1511   2.396       .  S
Zr1508     O1512   2.406       .  S
O1509      H1546   0.990       .  S
O1510      H1541   0.990       .  S
O1510      H1555   0.990       .  S
O1511     Zr2177   2.402   1_554  S
O1511     Zr2179   2.390   1_554  S
O1512     Zr2177   2.396   1_554  S
O1512      H1538   0.966       .  S
O1513     Zr2177   2.370   1_554  S
O1513     Zr2195   2.363   1_554  S
O1514     Zr1523   2.347       .  S
O1514      H1539   0.962       .  S
C1515      C1877   1.487       .  S
C1517      C1842   1.493       .  S
O1518      H1554   0.990       .  S
O1519      C1521   1.294       .  A
O1520      C2193   1.291       .  A
C1521      O2192   1.288   1_554  A
O1522     Zr2195   2.430       .  S
O1522      H1551   0.991       .  S
Zr1523     O2194   2.432       .  S
Zr1523     O2198   2.438       .  S
Zr1523     O1527   2.440       .  S
Zr1523     O1528   2.418       .  S
Zr1523     O2175   2.387       .  S
Zr1523     O2176   2.419       .  S
Zr1523     O2185   2.363       .  S
O1524      C1529   1.286       .  A
O1525      H1542   0.990       .  S
O1525      H1557   0.990       .  S
O1526     Zr2195   2.441       .  S
O1526      H2215   0.990       .  S
O1527      H1547   0.990       .  S
O1527      H1556   0.990       .  S
O1528      C1529   1.282       .  A
C1529      C1829   1.478       .  S
O1530      H1549   0.989       .  S
O1530      H1553   0.989       .  S
O1531      H1545   0.990       .  S
O1531      H2224   0.990       .  S
O1532      C1536   1.283       .  A
O1533      C1536   1.282       .  A
O1534      H1544   0.991       .  S
O1535      H1548   0.990       .  S
C1536      C1858   1.447       .  S
H1543      O2198   0.990       .  S
H1552      O2203   0.990   1_554  S
Zr1559     O1560   2.433       .  S
Zr1559     O1561   2.429       .  S
Zr1559     O1562   2.411       .  S
Zr1559     O1565   2.505       .  S
Zr1559     O1567   2.382       .  S
Zr1559     O2240   2.370       .  S
Zr1559     O2241   2.424       .  S
Zr1559     O2242   2.395       .  S
O1560      H1616   0.986       .  S
O1560      H1624   0.989       .  S
O1561      C1581   1.281       .  A
O1562      C1583   1.280       .  A
O1563     Zr1573   2.447       .  S
O1563      C2254   1.288       .  A
O1564     Zr1572   2.447       .  S
O1564      C1583   1.289       .  A
O1565      C1582   1.296       .  A
O1566     Zr1574   2.419       .  S
O1566      C1581   1.281       .  A
O1567     Zr1572   2.390       .  S
O1567     Zr1574   2.346       .  S
O1568     Zr2231   2.366   1_554  S
O1568     Zr1573   2.383       .  S
O1568     Zr2246   2.369   1_554  S
O1568      H2275   0.965   1_554  S
O1569     Zr2231   2.426   1_554  S
O1569     Zr2244   2.425   1_554  S
O1569     Zr1589   2.393       .  S
O1569      H2278   0.966   1_554  S
O1570     Zr2231   2.395   1_554  S
O1570     Zr1573   2.407       .  S
O1570     Zr1589   2.418       .  S
Zr1571     O1596   2.431       .  S
Zr1571     O1590   2.472       .  S
Zr1571     O1598   2.419       .  S
Zr1571     O1586   2.480       .  S
Zr1571     O1577   2.420       .  S
Zr1571     O1578   2.418       .  S
Zr1571     O1579   2.369       .  S
Zr1571     O1580   2.380       .  S
Zr1572     O2263   2.432       .  S
Zr1572     O1584   2.435       .  S
Zr1572     O2257   2.493       .  S
Zr1572     O2241   2.418       .  S
Zr1572     O2250   2.397       .  S
Zr1572     O2251   2.387       .  S
Zr1573     O1575   2.433       .  S
Zr1573     O1597   2.433       .  S
Zr1573     O1599   2.439       .  S
Zr1573     O1577   2.403       .  S
Zr1573     O1580   2.389       .  S
Zr1574     O2272   2.441       .  S
Zr1574     O2273   2.432       .  S
Zr1574     O1576   2.437       .  S
Zr1574     O2240   2.367       .  S
Zr1574     O2249   2.399       .  S
Zr1574     O2250   2.419       .  S
O1575      H1612   0.990       .  S
O1576      H1607   0.989       .  S
O1576      H1621   0.990       .  S
O1577     Zr2246   2.407   1_554  S
O1578     Zr2244   2.403   1_554  S
O1578     Zr2246   2.423   1_554  S
O1578      H1604   0.965       .  S
O1579     Zr2244   2.384   1_554  S
O1579     Zr1589   2.373       .  S
O1580     Zr1589   2.371       .  S
O1580      H1605   0.964       .  S
C1581      C1778   1.496       .  S
C1582      C2021   1.522       .  S
C1582      O2235   1.292       .  A
C1583      C1813   1.466       .  S
O1584      H1620   0.990       .  S
O1585     Zr2244   2.497   1_554  S
O1585      C1587   1.298       .  A
O1586      C1587   1.291       .  A
O1588     Zr1589   2.432       .  S
O1588      H1617   0.989       .  S
Zr1589     O1592   2.438       .  S
Zr1589     O1593   2.443       .  S
Zr1589     O1594   2.400       .  S
O1590      C1595   1.292       .  A
O1591     Zr2244   2.433       .  S
O1591      H2280   0.990   1_556  S
O1591      H2295   0.990       .  S
O1592      H1609   0.990       .  S
O1593      H1613   0.988       .  S
O1593      H1622   0.990       .  S
O1594      C1595   1.275       .  A
C1595      C1797   1.488       .  S
O1596      H1615   0.990       .  S
O1596      H1619   0.989       .  S
O1597      H1611   0.990       .  S
O1597      H1618   0.990       .  S
O1598      C1602   1.284       .  A
O1599      C1602   1.284       .  A
O1600     Zr2246   2.443       .  S
O1600      H2282   0.990       .  S
O1601     Zr2246   2.434       .  S
O1601      H1614   0.990   1_556  S
C1602      C1762   1.499       .  S
H1603      O2240   0.965       .  S
H1606      O2241   0.966       .  S
H1608      O2263   0.990       .  S
H1610      O2272   0.990       .  S
H1623      O2263   0.990       .  S
N1625      C1630   1.345       .  A
N1625      C1629   1.344   1_455  A
N1625      H1657   1.041       .  S
N1626      C1633   1.344       .  A
N1626      C1634   1.340       .  A
N1627      C1632   1.355       .  A
N1627      C1631   1.356   1_455  A
N1627      H1658   1.039       .  S
N1628      C1635   1.347       .  A
N1628      C1636   1.341       .  A
C1629      C1637   1.390       .  A
C1629      C1645   1.406       .  A
C1630      C1646   1.400       .  A
C1630      C1638   1.385       .  A
C1631      C1639   1.387       .  A
C1631      C1648   1.420       .  A
C1632      C1647   1.421       .  A
C1632      C1640   1.389       .  A
C1633      C1645   1.399       .  A
C1633      C1641   1.384       .  A
C1634      C1648   1.401       .  A
C1634      C1642   1.388       .  A
C1635      C1643   1.383       .  A
C1635      C1646   1.404       .  A
C1636      C1644   1.388       .  A
C1636      C1647   1.406       .  A
C1637      C1638   1.363   1_655  A
C1637      H1649   1.077       .  S
C1638      H1650   1.081       .  S
C1639      C1640   1.373   1_655  A
C1639      H1651   1.082       .  S
C1640      H1652   1.082       .  S
C1641      C1642   1.381       .  A
C1641      H1653   1.082       .  S
C1642      H1654   1.082       .  S
C1643      C1644   1.385       .  A
C1643      H1655   1.082       .  S
C1644      H1656   1.082       .  S
C1645      C1922   1.470       .  S
C1646      C2005   1.479       .  S
C1647      C1989   1.479       .  S
C1648      C1941   1.478       .  S
N1659      C1664   1.348   1_655  A
N1659      C1663   1.352       .  A
N1659      H1691   1.042       .  S
N1660      C1667   1.342       .  A
N1660      C1668   1.342       .  A
N1661      C1666   1.346   1_655  A
N1661      C1665   1.343       .  A
N1661      H1692   1.041       .  S
N1662      C1669   1.343       .  A
N1662      C1670   1.347       .  A
C1663      C1671   1.389       .  A
C1663      C1679   1.412       .  A
C1664      C1680   1.411       .  A
C1664      C1672   1.387       .  A
C1665      C1673   1.385       .  A
C1665      C1682   1.398       .  A
C1666      C1681   1.408       .  A
C1666      C1674   1.390       .  A
C1667      C1679   1.399       .  A
C1667      C1675   1.385       .  A
C1668      C1682   1.399       .  A
C1668      C1676   1.385       .  A
C1669      C1677   1.387       .  A
C1669      C1680   1.411       .  A
C1670      C1678   1.386       .  A
C1670      C1681   1.412       .  A
C1671      C1672   1.368   1_655  A
C1671      H1683   1.080       .  S
C1672      H1684   1.082       .  S
C1673      C1674   1.367   1_655  A
C1673      H1685   1.082       .  S
C1674      H1686   1.081       .  S
C1675      C1676   1.381       .  A
C1675      H1687   1.081       .  S
C1676      H1688   1.082       .  S
C1677      C1678   1.389       .  A
C1677      H1689   1.082       .  S
C1678      H1690   1.082       .  S
C1679      C1874   1.473       .  S
C1680      C1794   1.481       .  S
C1681      C1810   1.482       .  S
C1682      C1861   1.468       .  S
N1693      C1698   1.348       .  A
N1693      C1697   1.348       .  A
N1693      H1725   1.039       .  S
N1694      C1701   1.346       .  A
N1694      C1702   1.348       .  A
N1695      C1700   1.349       .  A
N1695      C1699   1.350       .  A
N1695      H1726   1.037       .  S
N1696      C1703   1.344       .  A
N1696      C1704   1.342       .  A
C1697      C1705   1.390       .  A
C1697      C1713   1.410       .  A
C1698      C1714   1.407       .  A
C1698      C1706   1.386       .  A
C1699      C1707   1.386       .  A
C1699      C1716   1.411       .  A
C1700      C1715   1.414       .  A
C1700      C1708   1.388       .  A
C1701      C1713   1.406       .  A
C1701      C1709   1.385       .  A
C1702      C1716   1.409       .  A
C1702      C1710   1.386       .  A
C1703      C1711   1.385       .  A
C1703      C1714   1.399       .  A
C1704      C1712   1.386       .  A
C1704      C1715   1.400       .  A
C1705      C1706   1.370       .  A
C1705      H1717   1.081       .  S
C1706      H1718   1.082       .  S
C1707      C1708   1.368       .  A
C1707      H1719   1.083       .  S
C1708      H1720   1.081       .  S
C1709      C1710   1.382       .  A
C1709      H1721   1.080       .  S
C1710      H1722   1.082       .  S
C1711      C1712   1.378       .  A
C1711      H1723   1.082       .  S
C1712      H1724   1.082       .  S
C1713      C1781   1.476       .  S
C1714      C1826   1.472       .  S
C1715      C1845   1.469       .  S
C1716      C1765   1.483       .  S
N1727      C1732   1.350       .  A
N1727      C1731   1.349       .  A
N1727      H1759   1.040       .  S
N1728      C1735   1.342       .  A
N1728      C1736   1.344       .  A
N1729      C1734   1.350       .  A
N1729      C1733   1.349       .  A
N1729      H1760   1.041       .  S
N1730      C1737   1.344       .  A
N1730      C1738   1.343       .  A
C1731      C1739   1.391       .  A
C1731      C1747   1.414       .  A
C1732      C1748   1.406       .  A
C1732      C1740   1.385       .  A
C1733      C1741   1.386       .  A
C1733      C1750   1.406       .  A
C1734      C1749   1.410       .  A
C1734      C1742   1.389       .  A
C1735      C1747   1.404       .  A
C1735      C1743   1.387       .  A
C1736      C1750   1.400       .  A
C1736      C1744   1.384       .  A
C1737      C1745   1.387       .  A
C1737      C1748   1.405       .  A
C1738      C1746   1.385       .  A
C1738      C1749   1.400       .  A
C1739      C1740   1.372       .  A
C1739      H1751   1.081       .  S
C1740      H1752   1.083       .  S
C1741      C1742   1.361       .  A
C1741      H1753   1.081       .  S
C1742      H1754   1.079       .  S
C1743      C1744   1.382       .  A
C1743      H1755   1.081       .  S
C1744      H1756   1.082       .  S
C1745      C1746   1.380       .  A
C1745      H1757   1.082       .  S
C1746      H1758   1.082       .  S
C1747      C1973   1.473       .  S
C1748      C1893   1.478       .  S
C1749      C1909   1.473       .  S
C1750      C1957   1.476       .  S
C1761      C1762   1.412       .  A
C1761      C1766   1.400       .  A
C1761      H1768   1.084       .  S
C1762      C1763   1.426       .  A
C1763      C1764   1.405       .  A
C1763      C1770   1.519       .  S
C1764      C1765   1.402       .  A
C1764      H1769   1.084       .  S
C1765      C1766   1.410       .  A
C1766      C1767   1.516       .  S
C1767      F1771   1.378       .  S
C1767      F1772   1.382       .  S
C1767      F1773   1.378       .  S
C1770      F1774   1.383       .  S
C1770      F1775   1.382       .  S
C1770      F1776   1.385       .  S
C1777      C1778   1.416       .  A
C1777      C1782   1.403       .  A
C1777      H1784   1.082       .  S
C1778      C1779   1.426       .  A
C1779      C1780   1.406       .  A
C1779      C1786   1.520       .  S
C1780      C1781   1.399       .  A
C1780      H1785   1.083       .  S
C1781      C1782   1.407       .  A
C1782      C1783   1.521       .  S
C1783      F1787   1.383       .  S
C1783      F1788   1.382       .  S
C1783      F1789   1.384       .  S
C1786      F1790   1.383       .  S
C1786      F1791   1.383       .  S
C1786      F1792   1.385       .  S
C1793      C1794   1.393       .  A
C1793      C1798   1.402       .  A
C1793      H1800   1.084       .  S
C1794      C1795   1.417       .  A
C1795      C1796   1.404       .  A
C1795      C1802   1.513       .  S
C1796      C1797   1.405       .  A
C1796      H1801   1.085       .  S
C1797      C1798   1.418       .  A
C1798      C1799   1.499       .  S
C1799      F1803   1.379       .  S
C1799      F1804   1.381       .  S
C1799      F1805   1.384       .  S
C1802      F1806   1.383   1_455  S
C1802      F1807   1.384       .  S
C1802      F1808   1.381       .  S
C1809      C1810   1.409       .  A
C1809      C1814   1.408       .  A
C1809      H1816   1.084       .  S
C1810      C1811   1.414       .  A
C1811      C1812   1.404       .  A
C1811      C1818   1.516       .  S
C1812      C1813   1.400       .  A
C1812      H1817   1.083       .  S
C1813      C1814   1.409       .  A
C1814      C1815   1.518       .  S
C1815      F1819   1.384       .  S
C1815      F1820   1.383       .  S
C1815      F1821   1.382       .  S
C1818      F1822   1.382       .  S
C1818      F1823   1.381       .  S
C1818      F1824   1.380       .  S
C1825      C1826   1.402       .  A
C1825      C1830   1.405       .  A
C1825      H1832   1.083       .  S
C1826      C1827   1.406       .  A
C1827      C1828   1.400       .  A
C1827      C1834   1.519       .  S
C1828      C1829   1.410       .  A
C1828      H1833   1.083       .  S
C1829      C1830   1.415       .  A
C1830      C1831   1.516       .  S
C1831      F1835   1.385       .  S
C1831      F1836   1.383       .  S
C1831      F1837   1.381       .  S
C1834      F1838   1.381       .  S
C1834      F1839   1.382       .  S
C1834      F1840   1.382       .  S
C1841      C1842   1.414       .  A
C1841      C1846   1.402       .  A
C1841      H1848   1.078       .  S
C1842      C1843   1.432       .  A
C1843      C1844   1.398       .  A
C1843      C1850   1.521       .  S
C1844      C1845   1.392       .  A
C1844      H1849   1.084       .  S
C1845      C1846   1.402       .  A
C1846      C1847   1.517       .  S
C1847      F1851   1.383       .  S
C1847      F1852   1.379       .  S
C1847      F1853   1.384       .  S
C1850      F1854   1.382       .  S
C1850      F1855   1.383       .  S
C1850      F1856   1.385       .  S
C1857      C1858   1.401       .  A
C1857      C1862   1.397       .  A
C1857      H1864   1.084       .  S
C1858      C1859   1.399       .  A
C1859      C1860   1.400       .  A
C1859      C1866   1.515       .  S
C1860      C1861   1.411       .  A
C1860      H1865   1.083       .  S
C1861      C1862   1.408       .  A
C1862      C1863   1.518       .  S
C1863      F1867   1.381       .  S
C1863      F1868   1.379       .  S
C1863      F1869   1.383       .  S
C1866      F1870   1.382       .  S
C1866      F1871   1.383       .  S
C1866      F1872   1.383       .  S
C1873      C1874   1.398       .  A
C1873      C1878   1.405       .  A
C1873      H1880   1.083       .  S
C1874      C1875   1.411       .  A
C1875      C1876   1.399       .  A
C1875      C1882   1.522       .  S
C1876      C1877   1.409       .  A
C1876      H1881   1.082       .  S
C1877      C1878   1.426       .  A
C1878      C1879   1.520       .  S
C1879      F1883   1.381       .  S
C1879      F1884   1.375       .  S
C1879      F1885   1.384       .  S
C1882      F1886   1.380       .  S
C1882      F1887   1.383       .  S
C1882      F1888   1.385       .  S
C1889      C1890   1.397       .  A
C1889      C1894   1.404       .  A
C1889      H1896   1.084       .  S
C1890      C1891   1.424       .  A
C1891      C1892   1.398       .  A
C1891      C1898   1.514       .  S
C1892      C1893   1.393       .  A
C1892      H1897   1.085       .  S
C1893      C1894   1.416       .  A
C1894      C1895   1.515       .  S
C1898      F1902   1.383       .  S
C1898      F1903   1.372       .  S
C1898      F1904   1.384       .  S
C1905      C1906   1.410       .  A
C1905      C1910   1.397       .  A
C1905      H1912   1.082       .  S
C1906      C1907   1.434       .  A
C1907      C1908   1.406       .  A
C1907      C1914   1.520       .  S
C1908      C1909   1.395       .  A
C1908      H1913   1.083       .  S
C1909      C1910   1.407       .  A
C1910      C1911   1.516       .  S
C1911      F1915   1.383       .  S
C1911      F1916   1.385       .  S
C1911      F1917   1.381       .  S
C1914      F1918   1.370       .  S
C1914      F1919   1.383       .  S
C1914      F1920   1.385       .  S
C1921      C1922   1.391       .  A
C1921      C1926   1.402       .  A
C1921      H1928   1.084       .  S
C1922      C1923   1.412       .  A
C1923      C1924   1.400       .  A
C1923      C1930   1.519       .  S
C1924      C1925   1.408       .  A
C1924      H1929   1.082       .  S
C1925      C1926   1.432       .  A
C1926      C1927   1.524       .  S
C1927      F1931   1.384       .  S
C1927      F1932   1.384       .  S
C1927      F1933   1.373       .  S
C1930      F1934   1.382       .  S
C1930      F1935   1.381       .  S
C1930      F1936   1.385       .  S
C1937      C1938   1.406       .  A
C1937      C1942   1.404       .  A
C1937      H1944   1.083       .  S
C1938      C1939   1.416       .  A
C1939      C1940   1.403       .  A
C1939      C1946   1.512       .  S
C1940      C1941   1.396       .  A
C1940      H1945   1.083       .  S
C1941      C1942   1.413       .  A
C1942      C1943   1.518       .  S
C1943      F1947   1.383       .  S
C1943      F1948   1.382       .  S
C1943      F1949   1.385       .  S
C1946      F1950   1.382       .  S
C1946      F1951   1.380       .  S
C1946      F1952   1.381       .  S
C1953      C1954   1.409       .  A
C1953      C1958   1.402       .  A
C1953      H1960   1.081       .  S
C1954      C1955   1.417       .  A
C1955      C1956   1.406       .  A
C1955      C1962   1.518       .  S
C1956      C1957   1.404       .  A
C1956      H1961   1.084       .  S
C1957      C1958   1.411       .  A
C1958      C1959   1.521       .  S
C1959      F1963   1.384       .  S
C1959      F1964   1.381       .  S
C1959      F1965   1.383       .  S
C1962      F1966   1.380       .  S
C1962      F1967   1.384       .  S
C1962      F1968   1.385       .  S
C1969      C1970   1.403       .  A
C1969      C1974   1.406       .  A
C1969      H1976   1.081       .  S
C1970      C1971   1.425       .  A
C1971      C1972   1.400       .  A
C1971      C1978   1.519       .  S
C1972      C1973   1.396       .  A
C1972      H1977   1.085       .  S
C1973      C1974   1.411       .  A
C1974      C1975   1.521       .  S
C1975      F1979   1.377       .  S
C1975      F1980   1.382       .  S
C1975      F1981   1.379       .  S
C1978      F1982   1.378       .  S
C1978      F1983   1.383       .  S
C1978      F1984   1.384       .  S
C1985      C1986   1.402       .  A
C1985      C1990   1.403       .  A
C1985      H1992   1.084       .  S
C1986      C1987   1.416       .  A
C1987      C1988   1.405       .  A
C1987      C1994   1.512       .  S
C1988      C1989   1.399       .  A
C1988      H1993   1.083       .  S
C1989      C1990   1.414       .  A
C1990      C1991   1.518       .  S
C1991      F1995   1.385       .  S
C1991      F1996   1.383       .  S
C1991      F1997   1.382       .  S
C1994      F1998   1.379       .  S
C1994      F1999   1.381       .  S
C1994      F2000   1.382       .  S
C2001      C2002   1.411       .  A
C2001      C2006   1.403       .  A
C2001      H2008   1.078       .  S
C2002      C2003   1.418       .  A
C2003      C2004   1.406       .  A
C2003      C2010   1.518       .  S
C2004      C2005   1.406       .  A
C2004      H2009   1.084       .  S
C2005      C2006   1.408       .  A
C2006      C2007   1.518       .  S
C2007      F2011   1.383       .  S
C2007      F2012   1.382       .  S
C2007      F2013   1.381       .  S
C2010      F2014   1.378       .  S
C2010      F2015   1.381       .  S
C2010      F2016   1.384       .  S
C2017      C2022   1.423       .  A
C2017      C2193   1.509       .  S
C2018      C2019   1.425       .  A
C2018      C2122   1.508   1_556  S
C2019      C2020   1.425   1_556  A
C2019      H2024   1.085       .  S
C2020      C2061   1.504       .  S
C2021      C2022   1.422       .  A
C2022      H2023   1.084       .  S
C2025      C2030   1.426       .  A
C2025      C2188   1.510       .  S
C2026      C2027   1.424   1_655  A
C2026      C2127   1.507       .  S
C2027      C2028   1.427       .  A
C2027      H2032   1.085       .  S
C2028      C2056   1.511       .  S
C2029      C2030   1.421   1_455  A
C2029      C2259   1.523       .  S
C2030      H2031   1.085       .  S
Zr2033     O2034   2.438       .  S
Zr2033     O2035   2.422       .  S
Zr2033     O2036   2.455       .  S
Zr2033     O2039   2.516       .  S
Zr2033     O2041   2.383       .  S
Zr2033     O2042   2.380       .  S
Zr2033     O2043   2.429       .  S
Zr2033     O2044   2.391       .  S
O2034      H2090   0.990       .  S
O2034      H2098   0.990       .  S
O2035      C2055   1.281       .  A
O2036      C2057   1.288       .  A
O2037      C2056   1.284       .  A
O2038     Zr2046   2.397       .  S
O2038      C2057   1.278       .  A
O2039      C2056   1.301       .  A
O2040     Zr2048   2.454       .  S
O2040      C2055   1.287       .  A
O2041     Zr2046   2.393       .  S
O2041     Zr2048   2.348       .  S
O2042     Zr2048   2.377       .  S
O2042      H2077   0.966       .  S
O2043     Zr2046   2.407       .  S
O2043      H2080   0.965       .  S
Zr2045     O2070   2.447       .  S
Zr2045     O2064   2.445       .  S
Zr2045     O2072   2.421       .  S
Zr2045     O2060   2.498       .  S
Zr2045     O2051   2.427       .  S
Zr2045     O2054   2.386       .  S
Zr2046     O2065   2.435       .  S
Zr2046     O2058   2.437       .  S
Zr2046     O2059   2.455       .  S
Zr2046     O2052   2.391       .  S
Zr2046     O2053   2.377       .  S
Zr2047     O2049   2.438       .  S
Zr2047     O2071   2.436       .  S
Zr2047     O2073   2.432       .  S
Zr2047     O2051   2.398       .  S
Zr2047     O2054   2.366       .  S
Zr2048     O2074   2.438       .  S
Zr2048     O2075   2.437       .  S
Zr2048     O2050   2.420       .  S
Zr2048     O2052   2.412       .  S
O2049      H2086   0.990       .  S
O2050      H2081   0.990       .  S
O2050      H2095   0.987       .  S
O2052      H2078   0.961       .  S
O2054     Zr2063   2.374   1_556  S
O2054      H2079   0.963       .  S
C2055      C2674   1.488       .  S
C2057      C2642   1.467       .  S
O2058      H2094   0.990       .  S
O2060      C2061   1.292   1_556  A
O2062      H2091   0.990       .  S
Zr2063     O2067   2.416   1_554  S
Zr2063     O2068   2.443   1_554  S
O2064      C2069   1.286       .  A
O2065      H2082   0.990       .  S
O2065      H2097   0.990       .  S
O2067      H2087   0.989       .  S
O2067      H2096   0.987   1_556  S
O2068      C2069   1.284       .  A
C2069      C2626   1.490       .  S
O2070      H2089   0.988       .  S
O2070      H2093   0.991       .  S
O2071      H2085   0.990       .  S
O2072      C2076   1.281       .  A
O2073      C2076   1.284       .  A
O2074      H2084   0.990       .  S
O2075      H2088   0.990       .  S
C2076      C2658   1.469       .  S
Zr2099     O2100   2.433       .  S
Zr2099     O2101   2.411       .  S
Zr2099     O2102   2.450       .  S
Zr2099     O2105   2.534       .  S
Zr2099     O2107   2.382       .  S
Zr2099     O2109   2.432       .  S
O2100      H2156   0.989       .  S
O2100      H2164   0.990       .  S
O2101      C2121   1.276       .  A
O2102      C2123   1.287       .  A
O2103     Zr2113   2.414       .  S
O2104     Zr2112   2.416       .  S
O2104      C2123   1.282       .  A
O2105      C2122   1.304   1_556  A
O2106      C2121   1.290       .  A
O2107     Zr2112   2.382       .  S
O2108     Zr2113   2.383       .  S
O2108     Zr2114   2.373       .  S
O2109     Zr2112   2.410       .  S
O2109      H2146   0.965       .  S
O2110     Zr2113   2.402       .  S
O2110     Zr2129   2.431       .  S
Zr2111     O2136   2.438       .  S
Zr2111     O2130   2.396       .  S
Zr2111     O2138   2.468       .  S
Zr2111     O2126   2.487       .  S
Zr2111     O2117   2.415       .  S
Zr2111     O2118   2.405       .  S
Zr2111     O2119   2.382       .  S
Zr2111     O2120   2.372       .  S
Zr2112     O2131   2.438       .  S
Zr2112     O2124   2.436       .  S
Zr2113     O2115   2.436       .  S
Zr2113     O2137   2.437       .  S
Zr2113     O2139   2.406       .  S
Zr2113     O2117   2.409       .  S
Zr2113     O2120   2.365       .  S
Zr2114     O2140   2.437       .  S
Zr2114     O2141   2.432       .  S
Zr2114     O2117   2.409       .  S
Zr2114     O2118   2.412       .  S
O2115      H2152   0.990       .  S
O2116      H2147   0.989       .  S
O2116      H2161   0.989       .  S
O2118      H2144   0.965       .  S
O2119     Zr2129   2.369       .  S
O2120     Zr2129   2.350       .  S
O2120      H2145   0.956       .  S
C2121      C2578   1.501       .  S
C2123      C2610   1.477       .  S
O2124      H2160   0.990       .  S
O2125      C2127   1.289       .  A
O2126      C2127   1.293       .  A
O2128     Zr2129   2.438       .  S
O2128      H2157   0.990       .  S
Zr2129     O2132   2.437       .  S
Zr2129     O2133   2.420       .  S
Zr2129     O2134   2.455       .  S
O2130      C2135   1.274       .  A
O2131      H2148   0.990       .  S
O2131      H2163   0.990       .  S
O2132      H2149   0.990       .  S
O2133      H2153   0.990       .  S
O2133      H2162   0.990       .  S
O2134      C2135   1.289       .  A
C2135      C2597   1.493       .  S
O2136      H2155   0.989       .  S
O2136      H2159   0.988       .  S
O2137      H2151   0.990       .  S
O2137      H2158   0.990       .  S
O2138      C2142   1.290       .  A
O2139      C2142   1.279       .  A
O2141      H2154   0.990       .  S
C2142      C2562   1.473       .  S
Zr2165     O2166   2.419       .  S
Zr2165     O2167   2.389       .  S
Zr2165     O2168   2.430       .  S
Zr2165     O2171   2.510       .  S
Zr2165     O2173   2.376       .  S
Zr2165     O2174   2.375       .  S
Zr2165     O2175   2.419       .  S
Zr2165     O2176   2.380       .  S
O2166      H2222   0.989       .  S
O2166      H2230   0.988       .  S
O2167      C2187   1.276       .  A
O2168      C2189   1.288       .  A
O2169      C2188   1.283       .  A
O2170     Zr2178   2.443       .  S
O2170      C2189   1.287       .  A
O2171      C2188   1.300       .  A
O2172     Zr2180   2.441       .  S
O2172      C2187   1.286       .  A
O2173     Zr2178   2.374       .  S
O2173     Zr2180   2.334       .  S
O2174     Zr2180   2.371       .  S
O2174      H2209   0.966       .  S
O2175     Zr2178   2.407       .  S
O2175      H2212   0.966       .  S
Zr2177     O2202   2.420       .  S
Zr2177     O2196   2.425       .  S
Zr2177     O2204   2.399       .  S
Zr2177     O2192   2.445       .  S
Zr2177     O2186   2.375       .  S
Zr2178     O2197   2.433       .  S
Zr2178     O2190   2.436       .  S
Zr2178     O2191   2.471       .  S
Zr2178     O2184   2.398       .  S
Zr2178     O2185   2.371       .  S
Zr2179     O2181   2.435       .  S
Zr2179     O2203   2.433       .  S
Zr2179     O2205   2.416       .  S
Zr2179     O2186   2.368       .  S
Zr2180     O2206   2.444       .  S
Zr2180     O2207   2.436       .  S
Zr2180     O2182   2.438       .  S
Zr2180     O2183   2.398       .  S
Zr2180     O2184   2.411       .  S
O2181      H2218   0.990       .  S
O2182      H2213   0.990       .  S
O2182      H2227   0.990       .  S
O2184      H2210   0.965       .  S
O2186     Zr2195   2.345       .  S
O2186      H2211   0.962       .  S
C2187      C2549   1.488       .  S
C2189      C2514   1.497       .  S
O2190      H2226   0.990       .  S
O2191      C2193   1.294       .  A
O2194      H2223   0.991       .  S
Zr2195     O2199   2.437       .  S
Zr2195     O2200   2.413       .  S
O2196      C2201   1.284       .  A
O2197      H2214   0.989       .  S
O2197      H2229   0.990       .  S
O2199      H2219   0.990       .  S
O2199      H2228   0.990       .  S
O2200      C2201   1.282       .  A
C2201      C2501   1.475       .  S
O2202      H2221   0.989       .  S
O2202      H2225   0.988   1_556  S
O2203      H2217   0.990       .  S
O2204      C2208   1.279       .  A
O2205      C2208   1.283       .  A
O2206      H2216   0.990       .  S
O2207      H2220   0.991       .  S
C2208      C2530   1.442       .  S
Zr2231     O2232   2.430       .  S
Zr2231     O2233   2.428       .  S
Zr2231     O2234   2.418       .  S
Zr2231     O2237   2.499       .  S
Zr2231     O2239   2.382       .  S
O2232      H2288   0.989       .  S
O2232      H2296   0.987       .  S
O2233      C2253   1.280       .  A
O2234      C2255   1.281       .  A
O2235     Zr2245   2.469       .  S
O2236     Zr2244   2.450       .  S
O2236      C2255   1.288       .  A
O2237      C2254   1.296   1_556  A
O2238     Zr2246   2.424       .  S
O2238      C2253   1.281       .  A
O2239     Zr2244   2.391       .  S
O2239     Zr2246   2.341       .  S
O2240     Zr2245   2.382       .  S
O2241     Zr2261   2.390       .  S
O2242     Zr2245   2.401       .  S
O2242     Zr2261   2.418       .  S
Zr2243     O2268   2.431       .  S
Zr2243     O2262   2.467       .  S
Zr2243     O2270   2.415       .  S
Zr2243     O2258   2.478       .  S
Zr2243     O2249   2.420       .  S
Zr2243     O2250   2.412       .  S
Zr2243     O2251   2.372       .  S
Zr2243     O2252   2.384       .  S
Zr2244     O2256   2.436       .  S
Zr2245     O2247   2.434       .  S
Zr2245     O2269   2.435       .  S
Zr2245     O2271   2.442       .  S
Zr2245     O2249   2.402       .  S
Zr2245     O2252   2.391       .  S
Zr2246     O2248   2.440       .  S
O2247      H2284   0.990       .  S
O2248      H2279   0.989       .  S
O2248      H2293   0.989       .  S
O2250      H2276   0.965       .  S
O2251     Zr2261   2.376       .  S
O2252     Zr2261   2.369       .  S
O2252      H2277   0.964       .  S
C2253      C2450   1.499       .  S
C2255      C2485   1.469       .  S
O2256      H2292   0.990       .  S
O2257      C2259   1.298       .  A
O2258      C2259   1.290       .  A
O2260     Zr2261   2.430       .  S
O2260      H2289   0.989       .  S
Zr2261     O2264   2.440       .  S
Zr2261     O2265   2.443       .  S
Zr2261     O2266   2.401       .  S
O2262      C2267   1.290       .  A
O2264      H2281   0.990       .  S
O2265      H2285   0.988       .  S
O2265      H2294   0.990       .  S
O2266      C2267   1.276       .  A
C2267      C2469   1.485       .  S
O2268      H2287   0.989       .  S
O2268      H2291   0.989       .  S
O2269      H2283   0.990       .  S
O2269      H2290   0.990       .  S
O2270      C2274   1.284       .  A
O2271      C2274   1.285       .  A
O2273      H2286   0.991       .  S
C2274      C2434   1.500       .  S
N2297      C2302   1.346       .  A
N2297      C2301   1.345   1_455  A
N2297      H2329   1.042       .  S
N2298      C2305   1.344       .  A
N2298      C2306   1.342       .  A
N2299      C2304   1.353       .  A
N2299      C2303   1.354   1_455  A
N2299      H2330   1.039       .  S
N2300      C2307   1.347       .  A
N2300      C2308   1.339       .  A
C2301      C2309   1.389       .  A
C2301      C2317   1.405       .  A
C2302      C2318   1.402       .  A
C2302      C2310   1.385       .  A
C2303      C2311   1.386       .  A
C2303      C2320   1.416       .  A
C2304      C2319   1.420       .  A
C2304      C2312   1.390       .  A
C2305      C2317   1.400       .  A
C2305      C2313   1.384       .  A
C2306      C2320   1.404       .  A
C2306      C2314   1.387       .  A
C2307      C2315   1.384       .  A
C2307      C2318   1.406       .  A
C2308      C2316   1.389       .  A
C2308      C2319   1.407       .  A
C2309      C2310   1.364   1_655  A
C2309      H2321   1.078       .  S
C2310      H2322   1.081       .  S
C2311      C2312   1.372   1_655  A
C2311      H2323   1.083       .  S
C2312      H2324   1.082       .  S
C2313      C2314   1.383       .  A
C2313      H2325   1.082       .  S
C2314      H2326   1.082       .  S
C2315      C2316   1.388       .  A
C2315      H2327   1.082       .  S
C2316      H2328   1.082       .  S
C2317      C2594   1.473       .  S
C2318      C2677   1.484       .  S
C2319      C2661   1.476       .  S
C2320      C2613   1.480       .  S
N2331      C2336   1.348   1_655  A
N2331      C2335   1.352       .  A
N2331      H2363   1.042       .  S
N2332      C2339   1.340       .  A
N2332      C2340   1.340       .  A
N2333      C2338   1.347   1_655  A
N2333      C2337   1.343       .  A
N2333      H2364   1.041       .  S
N2334      C2341   1.343       .  A
N2334      C2342   1.345       .  A
C2335      C2343   1.390       .  A
C2335      C2351   1.415       .  A
C2336      C2352   1.407       .  A
C2336      C2344   1.385       .  A
C2337      C2345   1.387       .  A
C2337      C2354   1.402       .  A
C2338      C2353   1.407       .  A
C2338      C2346   1.389       .  A
C2339      C2351   1.399       .  A
C2339      C2347   1.386       .  A
C2340      C2354   1.400       .  A
C2340      C2348   1.386       .  A
C2341      C2349   1.387       .  A
C2341      C2352   1.406       .  A
C2342      C2350   1.385       .  A
C2342      C2353   1.406       .  A
C2343      C2344   1.368   1_655  A
C2343      H2355   1.079       .  S
C2344      H2356   1.082       .  S
C2345      C2346   1.368   1_655  A
C2345      H2357   1.083       .  S
C2346      H2358   1.082       .  S
C2347      C2348   1.383       .  A
C2347      H2359   1.081       .  S
C2348      H2360   1.082       .  S
C2349      C2350   1.386       .  A
C2349      H2361   1.082       .  S
C2350      H2362   1.082       .  S
C2351      C2546   1.474       .  S
C2352      C2466   1.480       .  S
C2353      C2482   1.479       .  S
C2354      C2533   1.466       .  S
N2365      C2370   1.349       .  A
N2365      C2369   1.350       .  A
N2365      H2397   1.039       .  S
N2366      C2373   1.347       .  A
N2366      C2374   1.348       .  A
N2367      C2372   1.352       .  A
N2367      C2371   1.351       .  A
N2367      H2398   1.036       .  S
N2368      C2375   1.344       .  A
N2368      C2376   1.345       .  A
C2369      C2377   1.390       .  A
C2369      C2385   1.411       .  A
C2370      C2386   1.409       .  A
C2370      C2378   1.387       .  A
C2371      C2379   1.387       .  A
C2371      C2388   1.414       .  A
C2372      C2387   1.417       .  A
C2372      C2380   1.387       .  A
C2373      C2385   1.405       .  A
C2373      C2381   1.384       .  A
C2374      C2388   1.410       .  A
C2374      C2382   1.387       .  A
C2375      C2383   1.385       .  A
C2375      C2386   1.401       .  A
C2376      C2384   1.386       .  A
C2376      C2387   1.404       .  A
C2377      C2378   1.368       .  A
C2377      H2389   1.081       .  S
C2378      H2390   1.082       .  S
C2379      C2380   1.369       .  A
C2379      H2391   1.083       .  S
C2380      H2392   1.081       .  S
C2381      C2382   1.380       .  A
C2381      H2393   1.080       .  S
C2382      H2394   1.082       .  S
C2383      C2384   1.378       .  A
C2383      H2395   1.082       .  S
C2384      H2396   1.082       .  S
C2385      C2453   1.477       .  S
C2386      C2498   1.470       .  S
C2387      C2517   1.479       .  S
C2388      C2437   1.487       .  S
N2399      C2404   1.351       .  A
N2399      C2403   1.350       .  A
N2399      H2431   1.041       .  S
N2400      C2407   1.342       .  A
N2400      C2408   1.347       .  A
N2401      C2406   1.350       .  A
N2401      C2405   1.351       .  A
N2401      H2432   1.041       .  S
N2402      C2409   1.346       .  A
N2402      C2410   1.344       .  A
C2403      C2411   1.391       .  A
C2403      C2419   1.414       .  A
C2404      C2420   1.407       .  A
C2404      C2412   1.384       .  A
C2405      C2413   1.384       .  A
C2405      C2422   1.407       .  A
C2406      C2421   1.414       .  A
C2406      C2414   1.390       .  A
C2407      C2419   1.406       .  A
C2407      C2415   1.388       .  A
C2408      C2422   1.404       .  A
C2408      C2416   1.384       .  A
C2409      C2417   1.386       .  A
C2409      C2420   1.408       .  A
C2410      C2418   1.386       .  A
C2410      C2421   1.405       .  A
C2411      C2412   1.372       .  A
C2411      H2423   1.081       .  S
C2412      H2424   1.083       .  S
C2413      C2414   1.364       .  A
C2413      H2425   1.082       .  S
C2414      H2426   1.080       .  S
C2415      C2416   1.383       .  A
C2415      H2427   1.082       .  S
C2416      H2428   1.082       .  S
C2417      C2418   1.383       .  A
C2417      H2429   1.082       .  S
C2418      H2430   1.082       .  S
C2419      C2645   1.473       .  S
C2420      C2565   1.486       .  S
C2421      C2581   1.477       .  S
C2422      C2629   1.483       .  S
C2433      C2434   1.414       .  A
C2433      C2438   1.403       .  A
C2433      H2440   1.084       .  S
C2434      C2435   1.426       .  A
C2435      C2436   1.403       .  A
C2435      C2442   1.520       .  S
C2436      C2437   1.403       .  A
C2436      H2441   1.084       .  S
C2437      C2438   1.412       .  A
C2438      C2439   1.519       .  S
C2439      F2443   1.377       .  S
C2439      F2444   1.382       .  S
C2439      F2445   1.378       .  S
C2442      F2446   1.383       .  S
C2442      F2447   1.382       .  S
C2442      F2448   1.385       .  S
C2449      C2450   1.416       .  A
C2449      C2454   1.402       .  A
C2449      H2456   1.081       .  S
C2450      C2451   1.428       .  A
C2451      C2452   1.407       .  A
C2451      C2458   1.521       .  S
C2452      C2453   1.399       .  A
C2452      H2457   1.083       .  S
C2453      C2454   1.407       .  A
C2454      C2455   1.521       .  S
C2455      F2459   1.383       .  S
C2455      F2460   1.382       .  S
C2455      F2461   1.384       .  S
C2458      F2462   1.383       .  S
C2458      F2463   1.383       .  S
C2458      F2464   1.385       .  S
C2465      C2466   1.394       .  A
C2465      C2470   1.402       .  A
C2465      H2472   1.084       .  S
C2466      C2467   1.418       .  A
C2467      C2468   1.402       .  A
C2467      C2474   1.515       .  S
C2468      C2469   1.404       .  A
C2468      H2473   1.085       .  S
C2469      C2470   1.417       .  A
C2470      C2471   1.499       .  S
C2471      F2475   1.379       .  S
C2471      F2476   1.381       .  S
C2471      F2477   1.385       .  S
C2474      F2478   1.383   1_455  S
C2474      F2479   1.384       .  S
C2474      F2480   1.382       .  S
C2481      C2482   1.405       .  A
C2481      C2486   1.404       .  A
C2481      H2488   1.084       .  S
C2482      C2483   1.412       .  A
C2483      C2484   1.406       .  A
C2483      C2490   1.517       .  S
C2484      C2485   1.403       .  A
C2484      H2489   1.082       .  S
C2485      C2486   1.410       .  A
C2486      C2487   1.517       .  S
C2487      F2491   1.383       .  S
C2487      F2492   1.383       .  S
C2487      F2493   1.381       .  S
C2490      F2494   1.383       .  S
C2490      F2495   1.381       .  S
C2490      F2496   1.380       .  S
C2497      C2498   1.403       .  A
C2497      C2502   1.404       .  A
C2497      H2504   1.083       .  S
C2498      C2499   1.407       .  A
C2499      C2500   1.398       .  A
C2499      C2506   1.522       .  S
C2500      C2501   1.409       .  A
C2500      H2505   1.082       .  S
C2501      C2502   1.415       .  A
C2502      C2503   1.517       .  S
C2503      F2507   1.384       .  S
C2503      F2508   1.384       .  S
C2503      F2509   1.381       .  S
C2506      F2510   1.382       .  S
C2506      F2511   1.381       .  S
C2506      F2512   1.381       .  S
C2513      C2514   1.413       .  A
C2513      C2518   1.404       .  A
C2513      H2520   1.079       .  S
C2514      C2515   1.430       .  A
C2515      C2516   1.402       .  A
C2515      C2522   1.518       .  S
C2516      C2517   1.394       .  A
C2516      H2521   1.084       .  S
C2517      C2518   1.405       .  A
C2518      C2519   1.515       .  S
C2519      F2523   1.382       .  S
C2519      F2524   1.375       .  S
C2519      F2525   1.384       .  S
C2522      F2526   1.384       .  S
C2522      F2527   1.382       .  S
C2522      F2528   1.385       .  S
C2529      C2530   1.400       .  A
C2529      C2534   1.396       .  A
C2529      H2536   1.083       .  S
C2530      C2531   1.397       .  A
C2531      C2532   1.399       .  A
C2531      C2538   1.516       .  S
C2532      C2533   1.411       .  A
C2532      H2537   1.083       .  S
C2533      C2534   1.409       .  A
C2534      C2535   1.518       .  S
C2535      F2539   1.381       .  S
C2535      F2540   1.378       .  S
C2535      F2541   1.382       .  S
C2538      F2542   1.382       .  S
C2538      F2543   1.383       .  S
C2538      F2544   1.380       .  S
C2545      C2546   1.399       .  A
C2545      C2550   1.406       .  A
C2545      H2552   1.083       .  S
C2546      C2547   1.411       .  A
C2547      C2548   1.399       .  A
C2547      C2554   1.521       .  S
C2548      C2549   1.409       .  A
C2548      H2553   1.082       .  S
C2549      C2550   1.426       .  A
C2550      C2551   1.521       .  S
C2551      F2555   1.382       .  S
C2551      F2556   1.376       .  S
C2551      F2557   1.383       .  S
C2554      F2558   1.380       .  S
C2554      F2559   1.383       .  S
C2554      F2560   1.384       .  S
C2561      C2562   1.396       .  A
C2561      C2566   1.404       .  A
C2561      H2568   1.084       .  S
C2562      C2563   1.425       .  A
C2563      C2564   1.403       .  A
C2563      C2570   1.516       .  S
C2564      C2565   1.397       .  A
C2564      H2569   1.085       .  S
C2565      C2566   1.418       .  A
C2566      C2567   1.513       .  S
C2570      F2574   1.384       .  S
C2570      F2575   1.374       .  S
C2570      F2576   1.384       .  S
C2577      C2578   1.411       .  A
C2577      C2582   1.400       .  A
C2577      H2584   1.082       .  S
C2578      C2579   1.436       .  A
C2579      C2580   1.408       .  A
C2579      C2586   1.523       .  S
C2580      C2581   1.395       .  A
C2580      H2585   1.083       .  S
C2581      C2582   1.407       .  A
C2582      C2583   1.514       .  S
C2583      F2587   1.383       .  S
C2583      F2588   1.384       .  S
C2583      F2589   1.380       .  S
C2586      F2590   1.375       .  S
C2586      F2591   1.383       .  S
C2586      F2592   1.385       .  S
C2593      C2594   1.390       .  A
C2593      C2598   1.402       .  A
C2593      H2600   1.084       .  S
C2594      C2595   1.413       .  A
C2595      C2596   1.404       .  A
C2595      C2602   1.518       .  S
C2596      C2597   1.409       .  A
C2596      H2601   1.082       .  S
C2597      C2598   1.433       .  A
C2598      C2599   1.523       .  S
C2599      F2603   1.385       .  S
C2599      F2604   1.384       .  S
C2599      F2605   1.378       .  S
C2602      F2606   1.382       .  S
C2602      F2607   1.381       .  S
C2602      F2608   1.385       .  S
C2609      C2610   1.406       .  A
C2609      C2614   1.405       .  A
C2609      H2616   1.083       .  S
C2610      C2611   1.413       .  A
C2611      C2612   1.403       .  A
C2611      C2618   1.509       .  S
C2612      C2613   1.398       .  A
C2612      H2617   1.084       .  S
C2613      C2614   1.412       .  A
C2614      C2615   1.516       .  S
C2615      F2619   1.383       .  S
C2615      F2620   1.381       .  S
C2615      F2621   1.384       .  S
C2618      F2622   1.384       .  S
C2618      F2623   1.381       .  S
C2618      F2624   1.383       .  S
C2625      C2626   1.410       .  A
C2625      C2630   1.404       .  A
C2625      H2632   1.081       .  S
C2626      C2627   1.418       .  A
C2627      C2628   1.410       .  A
C2627      C2634   1.516       .  S
C2628      C2629   1.406       .  A
C2628      H2633   1.083       .  S
C2629      C2630   1.412       .  A
C2630      C2631   1.520       .  S
C2631      F2635   1.384       .  S
C2631      F2636   1.381       .  S
C2631      F2637   1.383       .  S
C2634      F2638   1.380       .  S
C2634      F2639   1.383       .  S
C2634      F2640   1.386       .  S
C2641      C2642   1.400       .  A
C2641      C2646   1.404       .  A
C2641      H2648   1.081       .  S
C2642      C2643   1.422       .  A
C2643      C2644   1.401       .  A
C2643      C2650   1.521       .  S
C2644      C2645   1.399       .  A
C2644      H2649   1.085       .  S
C2645      C2646   1.413       .  A
C2646      C2647   1.522       .  S
C2647      F2651   1.378       .  S
C2647      F2652   1.381       .  S
C2647      F2653   1.378       .  S
C2650      F2654   1.379       .  S
C2650      F2655   1.383       .  S
C2650      F2656   1.384       .  S
C2657      C2658   1.403       .  A
C2657      C2662   1.402       .  A
C2657      H2664   1.084       .  S
C2658      C2659   1.414       .  A
C2659      C2660   1.404       .  A
C2659      C2666   1.514       .  S
C2660      C2661   1.399       .  A
C2660      H2665   1.083       .  S
C2661      C2662   1.414       .  A
C2662      C2663   1.519       .  S
C2663      F2667   1.385       .  S
C2663      F2668   1.382       .  S
C2663      F2669   1.383       .  S
C2666      F2670   1.381       .  S
C2666      F2671   1.383       .  S
C2666      F2672   1.382       .  S
C2673      C2674   1.411       .  A
C2673      C2678   1.407       .  A
C2673      H2680   1.080       .  S
C2674      C2675   1.419       .  A
C2675      C2676   1.408       .  A
C2675      C2682   1.519       .  S
C2676      C2677   1.407       .  A
C2676      H2681   1.085       .  S
C2677      C2678   1.410       .  A
C2678      C2679   1.518       .  S
C2679      F2683   1.383       .  S
C2679      F2684   1.383       .  S
C2679      F2685   1.381       .  S
C2682      F2686   1.379       .  S
C2682      F2687   1.381       .  S
C2682      F2688   1.385       .  S
