geometry optimzed in LAMMPS
_audit_creation_date              2020-11-30 
_audit_creation_method            'lammps2cif' 
_symmetry_space_group_name_H-M    'P1' 
_symmetry_Int_Tables_number       1 
_symmetry_cell_setting            triclinic 
loop_ 
_symmetry_equiv_pos_as_xyz 
  x,y,z 
_cell_length_a                    48.53628861 
_cell_length_b                    48.11380828082274 
_cell_length_c                    50.78417543925916 
_cell_angle_alpha                 89.8882088154971 
_cell_angle_beta                  90.13432050027673 
_cell_angle_gamma                 89.898618118264 
loop_ 
_atom_site_label 
_atom_site_type_symbol 
_atom_site_fract_x 
_atom_site_fract_y 
_atom_site_fract_z 
_atom_site_charge 
C1          C  0.50557736  0.12362829  0.67294393    -0.02100
C2          C  0.41026815  0.01536007  0.78851304    -0.02100
C3          C  0.61088404  0.03528963  0.78686204    -0.02100
C4          C  0.51746456  0.91659503  0.68002356    -0.02100
C5          C  0.11751042  0.53324319  0.66183358    -0.02100
C6          C  0.02888623  0.42011127  0.79452380    -0.02100
C7          C  0.03798122  0.61714165  0.78767331    -0.02100
C8          C  0.92546794  0.50824035  0.66880347    -0.02100
In9        In  0.51431387  0.74502345  0.48418184     1.36900
C10         C  0.51404046  0.78196286  0.52375201     0.78000
O11         O  0.53700755  0.71066358  0.50561696    -0.60500
O12         O  0.55334858  0.72556677  0.46979854    -0.51400
C13         C  0.47097459  0.71045397  0.48087410     0.70700
O14         O  0.47289803  0.72926295  0.49807223    -0.46200
C15         C  0.51900966  0.77780153  0.44150232     0.75400
O16         O  0.53098553  0.76217845  0.52226258    -0.58100
O17         O  0.53777021  0.77509179  0.45849356    -0.48200
O18         O  0.49657322  0.78231148  0.50537101    -0.54500
C19         C  0.55561761  0.70839159  0.48843061     0.85500
O20         O  0.49114850  0.70968510  0.46538540    -0.56400
O21         O  0.49795404  0.76333330  0.44628636    -0.59700
In22       In  0.73626808  0.51501444  0.49087500     1.36900
C23         C  0.76727970  0.51821334  0.44717556     0.78000
O24         O  0.70194167  0.54008042  0.47269290    -0.60500
O25         O  0.71784131  0.55312771  0.50948506    -0.51400
C26         C  0.70121332  0.47193161  0.49039678     0.70700
O27         O  0.72339709  0.47208607  0.47752427    -0.46200
C28         C  0.77181032  0.51514146  0.53197001     0.75400
O29         O  0.75344337  0.53827222  0.45605804    -0.58100
O30         O  0.75322611  0.49710843  0.52922602    -0.48200
O31         O  0.76504387  0.49628176  0.46061281    -0.54500
C32         C  0.70058401  0.55737817  0.49129943     0.85500
O33         O  0.69758458  0.49341835  0.50410980    -0.56400
O34         O  0.77191303  0.53288067  0.51379300    -0.59700
In35       In  0.28256260  0.52596914  0.46528559     1.36900
C36         C  0.24599020  0.52134704  0.50468801     0.78000
O37         O  0.30842765  0.55377775  0.49158856    -0.60500
O38         O  0.30728819  0.56270848  0.45100701    -0.51400
C39         C  0.31949645  0.48477613  0.46103003     0.70700
O40         O  0.30412329  0.48812086  0.48068171    -0.46200
C41         C  0.24819510  0.52486012  0.42370340     0.75400
O42         O  0.26264738  0.50245767  0.49844123    -0.58100
O43         O  0.25714509  0.54697574  0.43374251    -0.48200
O44         O  0.24798240  0.54293066  0.49063314    -0.54500
C45         C  0.31701721  0.56903277  0.47318685     0.85500
O46         O  0.31607442  0.50267922  0.44313023    -0.56400
O47         O  0.25681989  0.50319441  0.43504296    -0.59700
In48       In  0.50465742  0.29597047  0.47783390     1.36900
C49         C  0.50999649  0.26096959  0.43695487     0.78000
O50         O  0.53519351  0.32613964  0.46093344    -0.60500
O51         O  0.53768118  0.31754690  0.50158996    -0.51400
C52         C  0.46210844  0.33196779  0.47456635     0.70700
O53         O  0.47074148  0.31797770  0.45531853    -0.46200
C54         C  0.50358834  0.25934212  0.51768523     0.75400
O55         O  0.48873692  0.26196697  0.45113759    -0.58100
O56         O  0.52503685  0.26557808  0.50515262    -0.48200
O57         O  0.52825105  0.27814229  0.44366004    -0.54500
C58         C  0.54773398  0.33048764  0.48229768     0.85500
O59         O  0.47515457  0.32727294  0.49556256    -0.56400
O60         O  0.48229273  0.27177137  0.50951003    -0.59700
C61         C  0.42448993  0.01073304  0.16804026    -0.02100
C62         C  0.51502641  0.92481458  0.29585186    -0.02100
C63         C  0.62212257  0.02990920  0.17189051    -0.02100
C64         C  0.53580478  0.11546913  0.29274748    -0.02100
C65         C  0.98986831  0.43669418  0.16069800    -0.02100
C66         C  0.89792503  0.53776986  0.29075365    -0.02100
C67         C  0.99207530  0.63314006  0.16933920    -0.02100
C68         C  0.10051465  0.52254047  0.27927546    -0.02100
In69       In  0.78774158  0.02004981  0.97272361     1.36900
C70         C  0.75646661  0.02232987  0.92968631     0.78000
O71         O  0.81653756  0.99254119  0.94973247    -0.60500
O72         O  0.80921045  0.98210988  0.98933461    -0.51400
C73         C  0.82046256  0.06478064  0.97698564     0.70700
O74         O  0.82604865  0.04398091  0.96304048    -0.46200
C75         C  0.75332512  0.01716923  0.01414228     0.75400
O76         O  0.76767869  0.04359438  0.93954933    -0.58100
O77         O  0.74525937  0.01524592  0.99060152    -0.48200
O78         O  0.76073274  0.00026719  0.94245288    -0.54500
C79         C  0.82202503  0.97635007  0.96847299     0.85500
O80         O  0.79748205  0.06317055  0.98831350    -0.56400
O81         O  0.77913153  0.01954815  0.01641752    -0.59700
In82       In  0.01587157  0.79774319  0.96980704     1.36900
C83         C  0.01427388  0.76291819  0.01148409     0.78000
O84         O  0.98637140  0.82921081  0.98622196    -0.60500
O85         O  0.98058254  0.81666761  0.94672626    -0.51400
C86         C  0.05853092  0.83305104  0.97290571     0.70700
O87         O  0.03458561  0.83873367  0.98085005    -0.46200
C88         C  0.01932250  0.76742508  0.92596261     0.75400
O89         O  0.03592618  0.77488607  0.00396119    -0.58100
O90         O  0.03187304  0.79009577  0.92889216    -0.48200
O91         O  0.99357215  0.76846446  0.99748034    -0.54500
C92         C  0.97265779  0.83201920  0.96529174     0.85500
O93         O  0.06089439  0.80864673  0.96409938    -0.56400
O94         O  0.00463078  0.76061084  0.94535687    -0.59700
In95       In  0.01259545  0.24492794  0.98735901     1.36900
C96         C  0.01633636  0.28117595  0.94681680     0.78000
O97         O  0.99177247  0.20632500  0.00212868    -0.60500
O98         O  0.96925998  0.23208334  0.97614290    -0.51400
C99         C  0.05670766  0.21137923  0.98574937     0.70700
O100        O  0.04116401  0.21551296  0.96627479    -0.46200
C101        C  0.00812032  0.27748540  0.02970797     0.75400
O102        O  0.01062762  0.25584048  0.94384074    -0.58100
O103        O  0.98767760  0.26564162  0.01918762    -0.48200
O104        O  0.01992592  0.28776620  0.97047408    -0.54500
C105        C  0.96983528  0.20976409  0.98926401     0.85500
O106        O  0.05029907  0.22530308  0.00579916    -0.56400
O107        O  0.03085216  0.27193766  0.01884481    -0.59700
In108      In  0.24210108  0.02449710  0.98271192     1.36900
C109        C  0.27888167  0.02224559  0.02263533     0.78000
O110        O  0.20881863  0.00102523  0.96114503    -0.60500
O111        O  0.21993803  0.98679280  0.99898390    -0.51400
C112        C  0.20829926  0.06827061  0.98591591     0.70700
O113        O  0.22571335  0.06531799  0.96779888    -0.46200
C114        C  0.27396948  0.02593949  0.93971176     0.75400
O115        O  0.26245004  0.04220372  0.01916807    -0.58100
O116        O  0.26072336  0.00469604  0.94680476    -0.48200
O117        O  0.27618034  0.00324028  0.00581140    -0.54500
C118        C  0.20471437  0.98339920  0.97905220     0.85500
O119        O  0.20846006  0.04880134  0.00258489    -0.56400
O120        O  0.27115969  0.04635624  0.95497211    -0.59700
C121        C  0.08028162  0.19175606  0.98542517    -0.11600
C122        C  0.08078787  0.16810110  0.96891678     0.03900
C123        C  0.10305955  0.14963172  0.97014619    -0.12100
C124        C  0.12504413  0.15422294  0.98748884     0.18800
C125        C  0.12485781  0.17787320  0.00367519    -0.09100
C126        C  0.10249943  0.19628420  0.00271744    -0.02100
H127        H  0.10306668  0.13131514  0.95776163     0.05300
C128        C  0.14755311  0.13357748  0.98874030     0.20700
H129        H  0.10255437  0.21429668  0.01548452     0.10500
C130        C  0.16999805  0.13608349  0.97164169    -0.15500
C131        C  0.19058786  0.11565591  0.97085794     0.03500
C132        C  0.18860305  0.09188640  0.98727337    -0.10800
C133        C  0.16642984  0.09006860  0.00498864    -0.00800
C134        C  0.14607087  0.11062958  0.00581816    -0.06000
H135        H  0.17133103  0.15391099  0.95863905     0.06500
H136        H  0.16450794  0.07225377  0.01792385     0.09900
Br137      Br  0.15467503  0.18565379  0.02735616    -0.05700
Br138      Br  0.05115284  0.15859796  0.94549567    -0.02600
Br139      Br  0.22075139  0.12209851  0.94720170     0.00200
Br140      Br  0.11624659  0.10628668  0.03019215    -0.04200
C141        C  0.18370827  0.96084889  0.97721009    -0.11600
C142        C  0.17071025  0.95327281  0.95322075     0.03900
C143        C  0.15126623  0.93170521  0.95282952    -0.12100
C144        C  0.14381118  0.91776468  0.97598334     0.18800
C145        C  0.15627891  0.92551920  0.99989851    -0.09100
C146        C  0.17618940  0.94658099  0.00031931    -0.02100
H147        H  0.14152165  0.92607068  0.93438415     0.05300
C148        C  0.12217169  0.89600253  0.97500774     0.20700
H149        H  0.18549450  0.95212363  0.01898709     0.10500
C150        C  0.12886250  0.86893875  0.96695576    -0.15500
C151        C  0.10877157  0.84793380  0.96608600     0.03500
C152        C  0.08125525  0.85391708  0.97354624    -0.10800
C153        C  0.07480205  0.88123483  0.98135125    -0.00800
C154        C  0.09482287  0.90210133  0.98195233    -0.06000
H155        H  0.14986428  0.86412668  0.96137692     0.06500
H156        H  0.05390547  0.88662246  0.98680485     0.09900
Br157      Br  0.14632013  0.90820307  0.03256270    -0.05700
Br158      Br  0.17820796  0.97115299  0.92015669    -0.02600
Br159      Br  0.12063558  0.81185068  0.95458026     0.00200
Br160      Br  0.08374733  0.93892004  0.99182616    -0.04200
C161        C  0.83972769  0.08855570  0.97952542    -0.11600
C162        C  0.83993966  0.10665970  0.00147332     0.03900
C163        C  0.86038149  0.12716792  0.00355263    -0.12100
C164        C  0.88036324  0.13035429  0.98386949     0.18800
C165        C  0.87950010  0.11310512  0.96160340    -0.09100
C166        C  0.85955246  0.09231753  0.95970428    -0.02100
H167        H  0.86085907  0.14053080  0.02069206     0.05300
C168        C  0.90245396  0.15127217  0.98688321     0.20700
H169        H  0.85958287  0.07898720  0.94253439     0.10500
C170        C  0.92814893  0.14290221  0.99670662    -0.15500
C171        C  0.95030535  0.16148487  0.99787244     0.03500
C172        C  0.94683018  0.18933588  0.98926810    -0.10800
C173        C  0.92086340  0.19758573  0.97958168    -0.00800
C174        C  0.89884104  0.17882557  0.97833400    -0.06000
H175        H  0.93116213  0.12153581  0.00287345     0.06500
H176        H  0.91768250  0.21867555  0.97270529     0.09900
Br177      Br  0.90507832  0.11743544  0.93315649    -0.05700
Br178      Br  0.81390645  0.10389154  0.02977170    -0.02600
Br179      Br  0.98493844  0.14652532  0.00973276     0.00200
Br180      Br  0.86438883  0.19124698  0.96393614    -0.04200
C181        C  0.84248514  0.95339263  0.96597404    -0.11600
C182        C  0.85006096  0.93621089  0.98743949     0.03900
C183        C  0.87106578  0.91656448  0.98451368    -0.12100
C184        C  0.88507015  0.91343603  0.96061497     0.18800
C185        C  0.87690743  0.92956347  0.93879563    -0.09100
C186        C  0.85587560  0.94937668  0.94162209    -0.02100
H187        H  0.87694341  0.90387052  0.00127278     0.05300
C188        C  0.90854398  0.89370688  0.95961649     0.20700
H189        H  0.85038336  0.96206458  0.92476476     0.10500
C190        C  0.90629955  0.86900921  0.94509870    -0.15500
C191        C  0.92693171  0.84857312  0.94643990     0.03500
C192        C  0.95021171  0.85269893  0.96270997    -0.10800
C193        C  0.95250267  0.87759430  0.97688857    -0.00800
C194        C  0.93212417  0.89805380  0.97529220    -0.06000
H195        H  0.88803574  0.86525445  0.93333817     0.06500
H196        H  0.97042617  0.88131532  0.98913960     0.09900
Br197      Br  0.89462109  0.92614036  0.90519279    -0.05700
Br198      Br  0.83341649  0.93840926  0.02161847    -0.02600
Br199      Br  0.92104650  0.81468348  0.92739169     0.00200
Br200      Br  0.93764228  0.93181821  0.99468117    -0.04200
C201        C  0.02113601  0.62799669  0.18315196    -0.11600
C202        C  0.03504831  0.64730018  0.19975307     0.03900
C203        C  0.05721909  0.63835185  0.21583674    -0.12100
C204        C  0.06803057  0.61126514  0.21374337     0.18800
C205        C  0.05823120  0.59444001  0.19331060    -0.09100
C206        C  0.03625038  0.60325007  0.17778214    -0.02100
H207        H  0.06533350  0.65222593  0.23071100     0.05300
C208        C  0.08335254  0.59812895  0.23601585     0.20700
H209        H  0.03045549  0.58927668  0.16213215     0.10500
C210        C  0.06859325  0.59323145  0.25896498    -0.15500
C211        C  0.07702401  0.57277561  0.27671409     0.03500
C212        C  0.09877124  0.55399670  0.26979974    -0.10800
C213        C  0.11820727  0.56546275  0.25222149    -0.00800
C214        C  0.10991669  0.58622438  0.23403632    -0.06000
H215        H  0.05016835  0.60521385  0.26293541     0.06500
H216        H  0.13796189  0.55533652  0.24960136     0.09900
Br217      Br  0.07072186  0.55712040  0.18798152    -0.05700
Br218      Br  0.02513909  0.68583131  0.20179175    -0.02600
Br219      Br  0.06392178  0.57921776  0.31177254     0.00200
Br220      Br  0.13419973  0.59596453  0.20587204    -0.04200
C221        C  0.99693734  0.65615447  0.14786687    -0.11600
C222        C  0.98249598  0.68209972  0.14520593     0.03900
C223        C  0.98607929  0.69845495  0.12251401    -0.12100
C224        C  0.00496779  0.69114871  0.10298653     0.18800
C225        C  0.02173106  0.66781119  0.10690320    -0.09100
C226        C  0.01799723  0.65102008  0.12911013    -0.02100
H227        H  0.97434439  0.71750200  0.12026496     0.05300
C228        C  0.00771053  0.70883741  0.07918223     0.20700
H229        H  0.03074616  0.63263598  0.13081845     0.10500
C230        C  0.02716896  0.73030578  0.07898171    -0.15500
C231        C  0.03002419  0.74777456  0.05702992     0.03500
C232        C  0.01293888  0.74409846  0.03472032    -0.10800
C233        C  0.99349503  0.72241838  0.03498764    -0.00800
C234        C  0.99097014  0.70473843  0.05685972    -0.06000
H235        H  0.04006561  0.73362588  0.09613015     0.06500
H236        H  0.98031065  0.71908651  0.01804898     0.09900
Br237      Br  0.04944700  0.65756983  0.08186420    -0.05700
Br238      Br  0.95981561  0.69981096  0.17139793    -0.02600
Br239      Br  0.05644427  0.77727565  0.05957327     0.00200
Br240      Br  0.96461846  0.67507996  0.05545953    -0.04200
C241        C  0.92891315  0.53786451  0.30084622    -0.11600
C242        C  0.94117694  0.51488837  0.31488408     0.03900
C243        C  0.96970575  0.51344713  0.31906995    -0.12100
C244        C  0.98716600  0.53451626  0.31055198     0.18800
C245        C  0.97542148  0.55833233  0.29927126    -0.09100
C246        C  0.94737509  0.55932985  0.29347263    -0.02100
H247        H  0.97856151  0.49469513  0.32741518     0.05300
C248        C  0.01650386  0.52784362  0.30540825     0.20700
H249        H  0.94132002  0.57651072  0.28132382     0.10500
C250        C  0.02409724  0.52665855  0.27892877    -0.15500
C251        C  0.04868073  0.51420497  0.27208480     0.03500
C252        C  0.07093490  0.51504844  0.29016399    -0.10800
C253        C  0.06326304  0.51299097  0.31705467    -0.00800
C254        C  0.03577590  0.51893939  0.32468461    -0.06000
H255        H  0.00838704  0.52909590  0.26384005     0.06500
H256        H  0.07823700  0.50842793  0.33218945     0.09900
Br257      Br  0.99765194  0.58908160  0.28863738    -0.05700
Br258      Br  0.92211959  0.48324764  0.32868524    -0.02600
Br259      Br  0.03824789  0.47858552  0.25897328     0.00200
Br260      Br  0.02655618  0.51841089  0.36132649    -0.04200
C261        C  0.96736305  0.63968137  0.18854957    -0.11600
C262        C  0.93925090  0.63798118  0.17995454     0.03900
C263        C  0.91785806  0.63401875  0.19821148    -0.12100
C264        C  0.92330102  0.62972598  0.22504875     0.18800
C265        C  0.94955441  0.63853759  0.23404312    -0.09100
C266        C  0.97108265  0.64294368  0.21602908    -0.02100
H267        H  0.89700479  0.63176546  0.19096350     0.05300
C268        C  0.90452010  0.61112706  0.24135329     0.20700
H269        H  0.99110263  0.64595217  0.22447704     0.10500
C270        C  0.90053797  0.61550967  0.26855845    -0.15500
C271        C  0.89429349  0.59314966  0.28569035     0.03500
C272        C  0.89082943  0.56584748  0.27520471    -0.10800
C273        C  0.88373316  0.56545782  0.24820448    -0.00800
C274        C  0.89319070  0.58614363  0.23105790    -0.06000
H275        H  0.90443908  0.63573301  0.27694606     0.06500
H276        H  0.87501085  0.54702614  0.23940576     0.09900
Br277      Br  0.95868077  0.64464856  0.27031099    -0.05700
Br278      Br  0.92802714  0.63833329  0.14356203    -0.02600
Br279      Br  0.89625706  0.60102153  0.32262303     0.00200
Br280      Br  0.89364351  0.57529086  0.19458561    -0.04200
C281        C  0.98318223  0.60455929  0.15690877    -0.11600
C282        C  0.97800774  0.58110028  0.17354657     0.03900
C283        C  0.97340609  0.55522867  0.16275932    -0.12100
C284        C  0.97632906  0.55010086  0.13606412     0.18800
C285        C  0.97969518  0.57265400  0.11890791    -0.09100
C286        C  0.98176824  0.59971103  0.12922140    -0.02100
H287        H  0.96960306  0.53827634  0.17585788     0.05300
C288        C  0.97776562  0.52046192  0.12844582     0.20700
H289        H  0.98293174  0.61646367  0.11517538     0.10500
C290        C  0.95439650  0.50424096  0.13237542    -0.15500
C291        C  0.95646994  0.47596703  0.13878234     0.03500
C292        C  0.98294324  0.46355983  0.14329542    -0.10800
C293        C  0.00532185  0.47852037  0.13192618    -0.00800
C294        C  0.00326054  0.50694057  0.12608958    -0.06000
H295        H  0.93430676  0.51412124  0.13185882     0.06500
H296        H  0.02555416  0.46913049  0.13069082     0.09900
Br297      Br  0.98163797  0.56734046  0.08160012    -0.05700
Br298      Br  0.98135344  0.57964704  0.21138323    -0.02600
Br299      Br  0.92250131  0.45715343  0.13276674     0.00200
Br300      Br  0.03657937  0.52719516  0.11971804    -0.04200
C301        C  0.10471304  0.50062859  0.25628165    -0.11600
C302        C  0.10219337  0.47131549  0.26107634     0.03900
C303        C  0.09656519  0.45297200  0.24001259    -0.12100
C304        C  0.09573274  0.46268872  0.21395765     0.18800
C305        C  0.10741728  0.48862089  0.20906787    -0.09100
C306        C  0.10902826  0.50805451  0.22942355    -0.02100
H307        H  0.08906820  0.43228423  0.24437057     0.05300
C308        C  0.07140043  0.45530588  0.19744511     0.20700
H309        H  0.11270593  0.52859386  0.22271047     0.10500
C310        C  0.04989389  0.47442587  0.19748629    -0.15500
C311        C  0.02418125  0.46813711  0.18739757     0.03500
C312        C  0.01928320  0.44286008  0.17334365    -0.10800
C313        C  0.04284595  0.42538595  0.16998963    -0.00800
C314        C  0.06812316  0.43077715  0.18291283    -0.06000
H315        H  0.05261612  0.49422301  0.20729301     0.06500
H316        H  0.04220119  0.40723876  0.15765259     0.09900
Br317      Br  0.11477860  0.49993168  0.17353576    -0.05700
Br318      Br  0.10100094  0.45540833  0.29585263    -0.02600
Br319      Br  0.99735084  0.49570255  0.19595760     0.00200
Br320      Br  0.09800489  0.40513924  0.17905281    -0.04200
C321        C  0.89817827  0.51196671  0.27129410    -0.11600
C322        C  0.88635510  0.48459216  0.27453232     0.03900
C323        C  0.89482713  0.46254192  0.25777772    -0.12100
C324        C  0.91070661  0.46769789  0.23526277     0.18800
C325        C  0.91703250  0.49514537  0.22944900    -0.09100
C326        C  0.91499103  0.51532259  0.24870404    -0.02100
H327        H  0.88924305  0.44132392  0.26247347     0.05300
C328        C  0.92801541  0.44615264  0.22218341     0.20700
H329        H  0.92562836  0.53467803  0.24499561     0.10500
C330        C  0.92007561  0.43328095  0.19858664    -0.15500
C331        C  0.94029665  0.42376353  0.18067270     0.03500
C332        C  0.96827059  0.43208060  0.18397415    -0.10800
C333        C  0.97559316  0.43657464  0.21077727    -0.00800
C334        C  0.95586285  0.44437125  0.22944092    -0.06000
H335        H  0.89842668  0.43100918  0.19390511     0.06500
H336        H  0.99673870  0.43643133  0.21732361     0.09900
Br337      Br  0.92753584  0.50587591  0.19489657    -0.05700
Br338      Br  0.86070943  0.47294481  0.30119964    -0.02600
Br339      Br  0.92918970  0.39489595  0.15661943     0.00200
Br340      Br  0.96802465  0.45649506  0.26353316    -0.04200
C341        C  0.00585059  0.29754302  0.05186678    -0.11600
C342        C  0.98198718  0.29996331  0.06769329     0.03900
C343        C  0.98015146  0.32117631  0.08651515    -0.12100
C344        C  0.00161366  0.34027760  0.08992360     0.18800
C345        C  0.02580376  0.33729854  0.07496160    -0.09100
C346        C  0.02781072  0.31603774  0.05629102    -0.02100
H347        H  0.96154641  0.32324626  0.09810482     0.05300
C348        C  0.99764518  0.36421618  0.10784343     0.20700
H349        H  0.04636019  0.31461334  0.04454844     0.10500
C350        C  0.99969264  0.36061449  0.13512026    -0.15500
C351        C  0.99648661  0.38311417  0.15245240     0.03500
C352        C  0.99127847  0.41047093  0.14254719    -0.10800
C353        C  0.98809874  0.41310591  0.11481350    -0.00800
C354        C  0.99128876  0.39059260  0.09780463    -0.06000
H355        H  0.00417736  0.34014948  0.14298733     0.06500
H356        H  0.98336386  0.43271172  0.10552250     0.09900
Br357      Br  0.05631180  0.36229925  0.07882189    -0.05700
Br358      Br  0.95118141  0.27515967  0.06496007    -0.02600
Br359      Br  0.00081509  0.37452295  0.18923526     0.00200
Br360      Br  0.98651940  0.39693827  0.06070250    -0.04200
C361        C  0.62740091  0.06065545  0.18161747    -0.11600
C362        C  0.64811610  0.06877086  0.19997674     0.03900
C363        C  0.64354836  0.09279604  0.21553099    -0.12100
C364        C  0.62133591  0.11070564  0.20974856     0.18800
C365        C  0.61211856  0.10922857  0.18336280    -0.09100
C366        C  0.61301543  0.08353156  0.17038703    -0.02100
H367        H  0.65507941  0.09481076  0.23358783     0.05300
C368        C  0.60135817  0.12024577  0.23116484     0.20700
H369        H  0.60066106  0.08132637  0.15281552     0.10500
C370        C  0.57331812  0.12074933  0.22481097    -0.15500
C371        C  0.55277305  0.12376417  0.24347503     0.03500
C372        C  0.55868688  0.12143542  0.27102340    -0.10800
C373        C  0.58658193  0.12721007  0.27729863    -0.00800
C374        C  0.60783286  0.12633374  0.25787367    -0.06000
H375        H  0.56644210  0.11840706  0.20477141     0.06500
H376        H  0.59219737  0.13124413  0.29755845     0.09900
Br377      Br  0.59603391  0.14066283  0.16564649    -0.05700
Br378      Br  0.67977783  0.04670471  0.20839567    -0.02600
Br379      Br  0.51962014  0.13729173  0.22729349     0.00200
Br380      Br  0.64437551  0.13607625  0.26872580    -0.04200
C381        C  0.64445764  0.02570766  0.14970405    -0.11600
C382        C  0.66787902  0.00738622  0.14983302     0.03900
C383        C  0.68556284  0.00627139  0.12781994    -0.12100
C384        C  0.68134635  0.02301929  0.10555917     0.18800
C385        C  0.65915501  0.04154079  0.10545668    -0.09100
C386        C  0.64129957  0.04261719  0.12689113    -0.02100
H387        H  0.70301510  0.99219291  0.12808049     0.05300
C388        C  0.70004597  0.02092471  0.08243797     0.20700
H389        H  0.62406673  0.05658987  0.12504968     0.10500
C390        C  0.69042371  0.00877789  0.05904910    -0.15500
C391        C  0.70705985  0.00746144  0.03647957     0.03500
C392        C  0.73439679  0.01774302  0.03727217    -0.10800
C393        C  0.74382323  0.02997051  0.06078187    -0.00800
C394        C  0.72682618  0.03203801  0.08298246    -0.06000
H395        H  0.66964659  0.00061703  0.05825917     0.06500
H396        H  0.76432828  0.03877937  0.06170961     0.09900
Br397      Br  0.65261422  0.06652051  0.07656623    -0.05700
Br398      Br  0.67971270  0.98372109  0.17830269    -0.02600
Br399      Br  0.69094116  0.99127172  0.00554717     0.00200
Br400      Br  0.74034314  0.05198294  0.11298660    -0.04200
C401        C  0.53904531  0.09007447  0.31256652    -0.11600
C402        C  0.56064211  0.06993767  0.31496158     0.03900
C403        C  0.55412947  0.04321264  0.32416401    -0.12100
C404        C  0.52774723  0.03688105  0.33368095     0.18800
C405        C  0.51048018  0.05919019  0.34010447    -0.09100
C406        C  0.51592093  0.08533608  0.32927977    -0.02100
H407        H  0.56914817  0.02675387  0.32164196     0.05300
C408        C  0.51815195  0.00739437  0.33266605     0.20700
H409        H  0.50049569  0.10141047  0.33176779     0.10500
C410        C  0.53624054  0.98652686  0.34099476    -0.15500
C411        C  0.53432359  0.95947260  0.33118555     0.03500
C412        C  0.51273861  0.95196543  0.31323743    -0.10800
C413        C  0.49127692  0.97162284  0.31018462    -0.00800
C414        C  0.49469659  0.99941570  0.31794425    -0.06000
H415        H  0.55377090  0.99198566  0.35317658     0.06500
H416        H  0.47370308  0.96724125  0.29798286     0.09900
Br417      Br  0.47921550  0.05480878  0.36281380    -0.05700
Br418      Br  0.59832500  0.07361937  0.30486575    -0.02600
Br419      Br  0.56363991  0.93517124  0.34244507     0.00200
Br420      Br  0.46983166  0.02592368  0.30231342    -0.04200
C421        C  0.62161358  0.00661524  0.19429036    -0.11600
C422        C  0.62158085  0.00991494  0.22267364     0.03900
C423        C  0.61817606  0.98695966  0.23942516    -0.12100
C424        C  0.60836492  0.96178736  0.23002727     0.18800
C425        C  0.60928110  0.95723783  0.20282352    -0.09100
C426        C  0.61681375  0.97884234  0.18560816    -0.02100
H427        H  0.61712298  0.99025280  0.26055374     0.05300
C428        C  0.58599005  0.94930969  0.24609206     0.20700
H429        H  0.61729607  0.97403821  0.16486289     0.10500
C430        C  0.56120312  0.96368517  0.24532486    -0.15500
C431        C  0.53893149  0.95623186  0.26076322     0.03500
C432        C  0.54054300  0.93280864  0.27848028    -0.10800
C433        C  0.56652168  0.91926877  0.28014918    -0.00800
C434        C  0.58900729  0.92733191  0.26417271    -0.06000
H435        H  0.55932816  0.98161560  0.23244941     0.06500
H436        H  0.56989296  0.90284724  0.29427166     0.09900
Br437      Br  0.59764251  0.92245197  0.18834853    -0.05700
Br438      Br  0.61781906  0.04254766  0.24395067    -0.02600
Br439      Br  0.50718734  0.97914383  0.25307074     0.00200
Br440      Br  0.62365199  0.90881611  0.26838130    -0.04200
C441        C  0.45226726  0.00027234  0.15452308    -0.11600
C442        C  0.46105581  0.00527397  0.12795642     0.03900
C443        C  0.48953439  0.00771095  0.12225621    -0.12100
C444        C  0.50945214  0.99969165  0.14083650     0.18800
C445        C  0.50033391  0.98649286  0.16370894    -0.09100
C446        C  0.47300515  0.98922823  0.17150457    -0.02100
H447        H  0.49607881  0.01555999  0.10328275     0.05300
C448        C  0.53765009  0.01203051  0.14159827     0.20700
H449        H  0.46861153  0.98356392  0.19165345     0.10500
C450        C  0.54189969  0.03143703  0.16142792    -0.15500
C451        C  0.56805461  0.03734564  0.17112645     0.03500
C452        C  0.59231796  0.02683478  0.15899170    -0.10800
C453        C  0.58764955  0.00902471  0.13689004    -0.00800
C454        C  0.56086718  0.00094942  0.12889854    -0.06000
H455        H  0.52414477  0.03927986  0.17195782     0.06500
H456        H  0.60478098  0.99921614  0.12699212     0.09900
Br457      Br  0.52583928  0.96764935  0.18628698    -0.05700
Br458      Br  0.43772578  0.00234351  0.09755859    -0.02600
Br459      Br  0.56667508  0.05703451  0.20312547     0.00200
Br460      Br  0.55696976  0.97275951  0.10262210    -0.04200
C461        C  0.43069807  0.03938961  0.18217257    -0.11600
C462        C  0.41203446  0.05381048  0.19919919     0.03900
C463        C  0.42265255  0.07247002  0.21831603    -0.12100
C464        C  0.45021876  0.08139048  0.21704995     0.18800
C465        C  0.46479473  0.07469041  0.19391764    -0.09100
C466        C  0.45627024  0.05273440  0.17835583    -0.02100
H467        H  0.40992589  0.07835273  0.23486047     0.05300
C468        C  0.46672674  0.08865123  0.24120412     0.20700
H469        H  0.47014276  0.04676767  0.16282529     0.10500
C470        C  0.48953511  0.07181274  0.24572460    -0.15500
C471        C  0.51058005  0.07958089  0.26257295     0.03500
C472        C  0.50926731  0.10496625  0.27742904    -0.10800
C473        C  0.48313495  0.11835736  0.27741526    -0.00800
C474        C  0.46228253  0.11094903  0.25887841    -0.06000
H475        H  0.49198747  0.05289889  0.23434317     0.06500
H476        H  0.47905020  0.13510257  0.29093150     0.09900
Br477      Br  0.49856635  0.09195244  0.18376768    -0.05700
Br478      Br  0.37352935  0.04493893  0.20120976    -0.02600
Br479      Br  0.54029531  0.05339962  0.26164376     0.00200
Br480      Br  0.42892809  0.13214274  0.25808123    -0.04200
C481        C  0.41767468  0.98716413  0.18912744    -0.11600
C482        C  0.41716968  0.95827121  0.18223083     0.03900
C483        C  0.42000244  0.93759949  0.20171456    -0.12100
C484        C  0.42376616  0.94440113  0.22839270     0.18800
C485        C  0.41915347  0.97213779  0.23573016    -0.09100
C486        C  0.41716042  0.99277171  0.21656388    -0.02100
H487        H  0.42291111  0.91623735  0.19558276     0.05300
C488        C  0.44276381  0.92682597  0.24467204     0.20700
H489        H  0.41800048  0.01320022  0.22450937     0.10500
C490        C  0.46825950  0.92045768  0.23355928    -0.15500
C491        C  0.49126419  0.91484124  0.24912051     0.03500
C492        C  0.48973728  0.91880857  0.27718845    -0.10800
C493        C  0.46277588  0.91782360  0.28786971    -0.00800
C494        C  0.43935307  0.92141051  0.27173423    -0.06000
H495        H  0.47099653  0.92191451  0.21242701     0.06500
H496        H  0.45986012  0.91678626  0.30894364     0.09900
Br497      Br  0.41978521  0.98492122  0.27148257    -0.05700
Br498      Br  0.41787596  0.94488561  0.14652078    -0.02600
Br499      Br  0.52244803  0.90334710  0.22820156     0.00200
Br500      Br  0.40339763  0.91831082  0.28704480    -0.04200
C501        C  0.29914409  0.02138731  0.04480403    -0.11600
C502        C  0.32111462  0.00199276  0.04597172     0.03900
C503        C  0.33886076  0.00156675  0.06782529    -0.12100
C504        C  0.33588368  0.02068811  0.08843447     0.18800
C505        C  0.31480516  0.04072755  0.08688172    -0.09100
C506        C  0.29653763  0.04076517  0.06542831    -0.02100
H507        H  0.35557491  0.98661529  0.06846448     0.05300
C508        C  0.35600677  0.02019066  0.11054115     0.20700
H509        H  0.28020769  0.05612936  0.06491068     0.10500
C510        C  0.37694570  0.03999457  0.11142754    -0.15500
C511        C  0.39831522  0.03842840  0.13007405     0.03500
C512        C  0.39975881  0.01565762  0.14839813    -0.10800
C513        C  0.37624563  0.99805668  0.14899743    -0.00800
C514        C  0.35526585  0.99963887  0.13007720    -0.06000
H515        H  0.37711791  0.05646455  0.09683661     0.06500
H516        H  0.37369336  0.98235825  0.16391864     0.09900
Br517      Br  0.31024987  0.06841747  0.11364288    -0.05700
Br518      Br  0.32956528  0.97683227  0.01780179    -0.02600
Br519      Br  0.42478760  0.06789801  0.12666654     0.00200
Br520      Br  0.32574624  0.97323794  0.13183309    -0.04200
C521        C  0.53414559  0.14203121  0.31119191    -0.11600
C522        C  0.52055318  0.16794101  0.30603675     0.03900
C523        C  0.51747658  0.18782883  0.32611343    -0.12100
C524        C  0.52914831  0.18399226  0.35099267     0.18800
C525        C  0.54567980  0.16067676  0.35538740    -0.09100
C526        C  0.54893280  0.14094888  0.33555331    -0.02100
H527        H  0.50613016  0.20682335  0.32218934     0.05300
C528        C  0.52394851  0.20446971  0.37215769     0.20700
H529        H  0.56287259  0.12402531  0.33998865     0.10500
C530        C  0.49978429  0.20228766  0.38702574    -0.15500
C531        C  0.49448127  0.22046709  0.40796052     0.03500
C532        C  0.51378377  0.24145362  0.41445447    -0.10800
C533        C  0.53787314  0.24367585  0.39913565    -0.00800
C534        C  0.54297611  0.22552195  0.37816261    -0.06000
H535        H  0.48505722  0.18608358  0.38246066     0.06500
H536        H  0.55295435  0.25959712  0.40347372     0.09900
Br537      Br  0.56338659  0.15415999  0.38868269    -0.05700
Br538      Br  0.50790794  0.18122157  0.27279824    -0.02600
Br539      Br  0.46065062  0.21479575  0.42672050     0.00200
Br540      Br  0.57613445  0.23020985  0.35815825    -0.04200
C541        C  0.12489541  0.52113708  0.29985227    -0.11600
C542        C  0.15141997  0.50832963  0.29570539     0.03900
C543        C  0.17146134  0.50834350  0.31578405    -0.12100
C544        C  0.16717061  0.52212947  0.33957393     0.18800
C545        C  0.14245533  0.53649179  0.34322947    -0.09100
C546        C  0.12218257  0.53611085  0.32367386    -0.02100
H547        H  0.19112540  0.49823612  0.31248864     0.05300
C548        C  0.18894972  0.52210365  0.36013438     0.20700
H549        H  0.10397535  0.54766817  0.32773962     0.10500
C550        C  0.20609365  0.54534718  0.36295621    -0.15500
C551        C  0.22582398  0.54661252  0.38315457     0.03500
C552        C  0.22867430  0.52419601  0.40107483    -0.10800
C553        C  0.21189169  0.50065707  0.39766443    -0.00800
C554        C  0.19210829  0.49956685  0.37755231    -0.06000
H555        H  0.20392192  0.56270835  0.34948600     0.06500
H556        H  0.21363488  0.48325091  0.41113101     0.09900
Br557      Br  0.13528269  0.55690863  0.37492263    -0.05700
Br558      Br  0.16554330  0.49341320  0.26324981    -0.02600
Br559      Br  0.24865985  0.57915234  0.38444206     0.00200
Br560      Br  0.16894402  0.46741443  0.37522681    -0.04200
C561        C  0.33929740  0.46133639  0.45957752    -0.11600
C562        C  0.36535702  0.46353909  0.44745362     0.03900
C563        C  0.38406710  0.44128541  0.44903637    -0.12100
C564        C  0.37707296  0.41642675  0.46200851     0.18800
C565        C  0.35058374  0.41388251  0.47301746    -0.09100
C566        C  0.33219434  0.43626266  0.47200788    -0.02100
H567        H  0.40440063  0.44358715  0.44056380     0.05300
C568        C  0.39802025  0.39399033  0.46505153     0.20700
H569        H  0.31209242  0.43400282  0.48099622     0.10500
C570        C  0.40685033  0.38631955  0.49039917    -0.15500
C571        C  0.42687334  0.36562466  0.49418040     0.03500
C572        C  0.43925215  0.35262137  0.47215917    -0.10800
C573        C  0.42991209  0.36004176  0.44682547    -0.00800
C574        C  0.40946481  0.38030223  0.44317275    -0.06000
H575        H  0.39798298  0.39647156  0.50742440     0.06500
H576        H  0.43863832  0.35012599  0.42961868     0.09900
Br577      Br  0.33815006  0.38000782  0.48901916    -0.05700
Br578      Br  0.37729121  0.49687807  0.43011353    -0.02600
Br579      Br  0.43516685  0.35563608  0.52997419     0.00200
Br580      Br  0.39705865  0.38771888  0.40795602    -0.04200
C581        C  0.78511469  0.52090741  0.42349024    -0.11600
C582        C  0.79476228  0.49776120  0.40897219     0.03900
C583        C  0.81230170  0.50182492  0.38736748    -0.12100
C584        C  0.82044669  0.52860037  0.37974822     0.18800
C585        C  0.81054010  0.55165018  0.39381450    -0.09100
C586        C  0.79303596  0.54771494  0.41536493    -0.02100
H587        H  0.81972290  0.48398514  0.37647667     0.05300
C588        C  0.83981242  0.53206120  0.35747737     0.20700
H589        H  0.78592222  0.56580030  0.42606704     0.10500
C590        C  0.82984661  0.53283774  0.33162179    -0.15500
C591        C  0.84781775  0.53525735  0.31006939     0.03500
C592        C  0.87695702  0.53593228  0.31402348    -0.10800
C593        C  0.88611025  0.53739747  0.34058818    -0.00800
C594        C  0.86813391  0.53493047  0.36187007    -0.06000
H595        H  0.80786388  0.53132534  0.32816421     0.06500
H596        H  0.90744018  0.54091349  0.34547662     0.09900
Br597      Br  0.82064362  0.58886834  0.38433264    -0.05700
Br598      Br  0.78404177  0.46022393  0.41667895    -0.02600
Br599      Br  0.83043382  0.53556657  0.27607081     0.00200
Br600      Br  0.88338219  0.53563973  0.39678078    -0.04200
C601        C  0.57211609  0.34917513  0.48402219    -0.11600
C602        C  0.58632924  0.35471384  0.50786901     0.03900
C603        C  0.60851631  0.37336750  0.50801850    -0.12100
C604        C  0.61704607  0.38669583  0.48486713     0.18800
C605        C  0.60348741  0.38072668  0.46108496    -0.09100
C606        C  0.58136907  0.36213544  0.46079169    -0.02100
H607        H  0.61887699  0.37794623  0.52642422     0.05300
C608        C  0.63874031  0.40825984  0.48624646     0.20700
H609        H  0.57107931  0.35819067  0.44222691     0.10500
C610        C  0.66596331  0.40178001  0.47935266    -0.15500
C611        C  0.68675271  0.42201630  0.48046141     0.03500
C612        C  0.68042747  0.44927847  0.48902673    -0.11600
C613        C  0.65303343  0.45551421  0.49589721    -0.00800
C614        C  0.63229925  0.43543071  0.49427085    -0.06000
H615        H  0.67102284  0.38090178  0.47301592     0.06500
H616        H  0.64751158  0.47634115  0.50203166     0.09900
Br617      Br  0.61366909  0.39849508  0.42871740    -0.05700
Br618      Br  0.57663783  0.33829147  0.54108630    -0.02600
Br619      Br  0.72325465  0.41071449  0.47063402     0.00200
Br620      Br  0.59513663  0.44621845  0.50215128    -0.04200
C621        C  0.52090273  0.79658532  0.41815706    -0.11600
C622        C  0.54317998  0.81512862  0.41398999     0.03900
C623        C  0.54250745  0.83377405  0.39268855    -0.12100
C624        C  0.52024500  0.83419417  0.37505922     0.18800
C625        C  0.49868819  0.81508306  0.37847299    -0.09100
C626        C  0.49907808  0.79663783  0.39983231    -0.02100
H627        H  0.55919309  0.84846446  0.39016608     0.05300
C628        C  0.51863226  0.85623400  0.35464463     0.20700
H629        H  0.48190245  0.78253437  0.40228734     0.10500
C630        C  0.52896982  0.85164459  0.32935468    -0.15500
C631        C  0.52708185  0.87213206  0.30956024     0.03500
C632        C  0.51673128  0.89927135  0.31544511    -0.10800
C633        C  0.50401602  0.90201161  0.34063300    -0.00800
C634        C  0.50519232  0.88131060  0.35986595    -0.06000
H635        H  0.53774015  0.83151435  0.32472941     0.06500
H636        H  0.49264042  0.92049954  0.34588797     0.09900
Br637      Br  0.46786677  0.81413703  0.35479766    -0.05700
Br638      Br  0.57490685  0.81691700  0.43661842    -0.02600
Br639      Br  0.53673515  0.85905796  0.27535861     0.00200
Br640      Br  0.48732441  0.88801754  0.39296208    -0.04200
C641        C  0.33717875  0.59203680  0.47670203    -0.11600
C642        C  0.35626883  0.59280035  0.49779786     0.03900
C643        C  0.37669785  0.61338397  0.49847358    -0.12100
C644        C  0.37832712  0.63383762  0.47879134     0.18800
C645        C  0.35855751  0.63387251  0.45843687    -0.09100
C646        C  0.33844983  0.61303215  0.45741653    -0.02100
H647        H  0.39181611  0.61308759  0.51420374     0.05300
C648        C  0.40154998  0.65401100  0.47913877     0.20700
H649        H  0.32377312  0.61319639  0.44131107     0.10500
C650        C  0.42096120  0.65354947  0.45870244    -0.15500
C651        C  0.44346155  0.67180164  0.45849305     0.03500
C652        C  0.44720595  0.69089460  0.47943579    -0.10800
C653        C  0.42763009  0.69124953  0.49983307    -0.00800
C654        C  0.40501093  0.67319405  0.49977631    -0.06000
H655        H  0.41854975  0.63884412  0.44273264     0.06500
H656        H  0.42983133  0.70572352  0.51600828     0.09900
Br657      Br  0.35780871  0.66230453  0.43188227    -0.05700
Br658      Br  0.35690433  0.56559527  0.52549748    -0.02600
Br659      Br  0.46747341  0.66965955  0.42852205     0.00200
Br660      Br  0.37878842  0.67636073  0.52780889    -0.04200
C661        C  0.57769297  0.68689979  0.48978580    -0.11600
C662        C  0.59633626  0.68228181  0.46878796     0.03900
C663        C  0.61590328  0.66098892  0.47057265    -0.12100
C664        C  0.61731994  0.64371167  0.49271989     0.18800
C665        C  0.59893920  0.64808886  0.51367281    -0.09100
C666        C  0.57944929  0.66959563  0.51216334    -0.02100
H667        H  0.62995675  0.65759136  0.45433485     0.05300
C668        C  0.63803372  0.62110563  0.49319214     0.20700
H669        H  0.56531969  0.67245176  0.52841296     0.10500
C670        C  0.66235342  0.62451803  0.50774356    -0.15500
C671        C  0.68316686  0.60429318  0.50725829     0.03500
C672        C  0.67974392  0.57998970  0.49195980    -0.10800
C673        C  0.65533834  0.57681055  0.47728351    -0.00800
C674        C  0.63457809  0.59702249  0.47789317    -0.06000
H675        H  0.66534115  0.64326453  0.51918129     0.06500
H676        H  0.65215647  0.55830105  0.46555883     0.09900
Br677      Br  0.59894029  0.62432872  0.54405498    -0.05700
Br678      Br  0.59601032  0.70310565  0.43646215    -0.02600
Br679      Br  0.71623579  0.61208232  0.52669082     0.00200
Br680      Br  0.60151756  0.59065841  0.45801862    -0.04200
C681        C  0.79198218  0.51503918  0.55424892    -0.11600
C682        C  0.81307415  0.53526383  0.55676266     0.03900
C683        C  0.83277882  0.53287177  0.57684185    -0.12100
C684        C  0.83174536  0.51113737  0.59514823     0.18800
C685        C  0.81003391  0.49188647  0.59375325    -0.09100
C686        C  0.79058264  0.49374765  0.57331505    -0.02100
H687        H  0.84917844  0.54807095  0.57814551     0.05300
C688        C  0.85398074  0.50883639  0.61509723     0.20700
H689        H  0.77438010  0.47833683  0.57229806     0.10500
C690        C  0.85241506  0.52431560  0.63830738    -0.15500
C691        C  0.87407218  0.52451445  0.65673564     0.03500
C692        C  0.89893663  0.50930837  0.65149782    -0.10800
C693        C  0.89930233  0.49289373  0.62834305    -0.00800
C694        C  0.87746070  0.49265767  0.61040915    -0.06000
H695        H  0.83398030  0.53637706  0.64213545     0.06500
H696        H  0.91732483  0.48075813  0.62348687     0.09900
Br697      Br  0.80618261  0.46296588  0.61951554    -0.05700
Br698      Br  0.81647576  0.56707086  0.53408740    -0.02600
Br699      Br  0.86537215  0.54465711  0.68843019     0.00200
Br700      Br  0.88110597  0.47062308  0.57915674    -0.04200
C701        C  0.92737584  0.53168331  0.69096746    -0.11600
C702        C  0.93552663  0.52820576  0.71800696     0.03900
C703        C  0.95063471  0.54895839  0.73091624    -0.12100
C704        C  0.95423350  0.57519437  0.71988674     0.18800
C705        C  0.94120520  0.58108874  0.69595931    -0.09100
C706        C  0.92778202  0.55980029  0.68219272    -0.02100
H707        H  0.95843644  0.54512827  0.75063370     0.05300
C708        C  0.97249925  0.59528120  0.73352353     0.20700
H709        H  0.91812747  0.56535951  0.66399279     0.10500
C710        C  0.99811330  0.60099246  0.72255981    -0.15500
C711        C  0.01927025  0.61327755  0.73731564     0.03500
C712        C  0.01544416  0.61896612  0.76486507    -0.10800
C713        C  0.98759883  0.61778021  0.77368891    -0.00800
C714        C  0.96666863  0.60549581  0.75870884    -0.06000
H715        H  0.00210329  0.59449893  0.70248865     0.06500
H716        H  0.98276466  0.62300828  0.79385457     0.09900
Br717      Br  0.94153108  0.61779265  0.68122912    -0.05700
Br718      Br  0.91840930  0.50512374  0.74401288    -0.02600
Br719      Br  0.05031664  0.62133597  0.71576235     0.00200
Br720      Br  0.93099989  0.60100499  0.77427371    -0.04200
C721        C  0.02152351  0.74994117  0.90208265    -0.11600
C722        C  0.04467392  0.75074030  0.88521017     0.03900
C723        C  0.04658265  0.73199134  0.86422314    -0.12100
C724        C  0.02582073  0.71237039  0.85962746     0.18800
C725        C  0.00255969  0.71187905  0.87607460    -0.09100
C726        C  0.00049256  0.73064479  0.89694027    -0.02100
H727        H  0.06483788  0.73201753  0.85198141     0.05300
C728        C  0.03044020  0.69019449  0.84004486     0.20700
H729        H  0.98262765  0.72960948  0.90965322     0.10500
C730        C  0.04876916  0.66892577  0.84633759    -0.15500
C731        C  0.05208911  0.64587110  0.82994644     0.03500
C732        C  0.03617299  0.64305733  0.80634948    -0.10800
C733        C  0.01981822  0.66650308  0.79920462    -0.00800
C734        C  0.01645824  0.68935768  0.81593933    -0.06000
H735        H  0.06010517  0.66993897  0.86473561     0.06500
H736        H  0.00931836  0.66761500  0.78047759     0.09900
Br737      Br  0.97416755  0.68448833  0.87211464    -0.05700
Br738      Br  0.07558364  0.77488589  0.89094394    -0.02600
Br739      Br  0.07768144  0.61940494  0.84351627     0.00200
Br740      Br  0.99275377  0.71918938  0.80504144    -0.04200
C741        C  0.00763830  0.41801323  0.77106482    -0.11600
C742        C  0.98954044  0.39589599  0.76358623     0.03900
C743        C  0.96947250  0.40036325  0.74348866    -0.12100
C744        C  0.96713244  0.42625328  0.73060034     0.18800
C745        C  0.98619856  0.44696752  0.73701024    -0.09100
C746        C  0.00678845  0.44195933  0.75512194    -0.02100
H747        H  0.95575425  0.38364185  0.73792826     0.05300
C748        C  0.94639358  0.43238453  0.70962073     0.20700
H749        H  0.02119996  0.45846852  0.75872009     0.10500
C750        C  0.92112700  0.44482608  0.71614814    -0.15500
C751        C  0.90987874  0.46567152  0.69957200     0.03500
C752        C  0.92653334  0.47684821  0.67925710    -0.10800
C753        C  0.94320077  0.45595687  0.66750484    -0.00800
C754        C  0.95502148  0.43511065  0.68336460    -0.06000
H755        H  0.91131518  0.44003153  0.73473283     0.06500
H756        H  0.95084898  0.45819371  0.64764453     0.09900
Br757      Br  0.98419454  0.48419817  0.72430116    -0.05700
Br758      Br  0.99207397  0.35872457  0.77704571    -0.02600
Br759      Br  0.87191847  0.47541576  0.70427020     0.00200
Br760      Br  0.98552656  0.41408808  0.67013160    -0.04200
C761        C  0.01989619  0.44684215  0.81087016    -0.11600
C762        C  0.99421245  0.46161547  0.80783635     0.03900
C763        C  0.99327241  0.49007312  0.81291425    -0.12100
C764        C  0.01599199  0.50342713  0.82381838     0.18800
C765        C  0.03688369  0.48703158  0.83514018    -0.09100
C766        C  0.03740678  0.45827413  0.83005471    -0.02100
H767        H  0.97551447  0.50211543  0.80667779     0.05300
C768        C  0.02054936  0.53272810  0.81645657     0.20700
H769        H  0.05230482  0.44519235  0.83975877     0.10500
C770        C  0.01401656  0.55485210  0.83326435    -0.15500
C771        C  0.01790332  0.58270891  0.82524312     0.03500
C772        C  0.02986843  0.58849597  0.80006670    -0.10800
C773        C  0.03233468  0.56569412  0.78261733    -0.00800
C774        C  0.02916460  0.53856120  0.79078729    -0.06000
H775        H  0.00518729  0.55043162  0.85238490     0.06500
H776        H  0.03960930  0.56884584  0.76270571     0.09900
Br777      Br  0.06584516  0.50355572  0.85538606    -0.05700
Br778      Br  0.95877418  0.44569016  0.79946808    -0.02600
Br779      Br  0.00155143  0.60983126  0.84809816     0.00200
Br780      Br  0.04067891  0.51055593  0.76655760    -0.04200
C781        C  0.01877826  0.30112175  0.92439869    -0.11600
C782        C  0.02308896  0.33004603  0.92794517     0.03900
C783        C  0.02511965  0.34764993  0.90597627    -0.12100
C784        C  0.02296773  0.33722470  0.88029350     0.18800
C785        C  0.01892492  0.30855293  0.87666718    -0.09100
C786        C  0.01681287  0.29085430  0.89851922    -0.02100
H787        H  0.02822070  0.36972360  0.90893114     0.05300
C788        C  0.02435205  0.35669559  0.85758888     0.20700
H789        H  0.01355656  0.26887861  0.89516278     0.10500
C790        C  0.04812318  0.35791219  0.84217263    -0.15500
C791        C  0.05069581  0.37683150  0.82114445     0.03500
C792        C  0.02839945  0.39537538  0.81467243    -0.10800
C793        C  0.00427574  0.39270865  0.83020379    -0.00800
C794        C  0.00229108  0.37427130  0.85138884    -0.06000
H795        H  0.06514254  0.34415115  0.84690744     0.06500
H796        H  0.98663888  0.40560962  0.82630263     0.09900
Br797      Br  0.01537381  0.29278592  0.84217989    -0.05700
Br798      Br  0.02598225  0.34742306  0.96189316    -0.02600
Br799      Br  0.08578313  0.37393175  0.80389466     0.00200
Br800      Br  0.96890015  0.37405698  0.87155078    -0.04200
C801        C  0.08788033  0.54242156  0.65153493    -0.11600
C802        C  0.06620604  0.54901188  0.66970182     0.03900
C803        C  0.03898263  0.55171820  0.66101138    -0.12100
C804        C  0.03163857  0.54655361  0.63480901     0.18800
C805        C  0.05276209  0.54401482  0.61615934    -0.09100
C806        C  0.08050189  0.54304914  0.62436151    -0.02100
H807        H  0.02282760  0.55374659  0.67560509     0.05300
C808        C  0.00400541  0.53385189  0.63085684     0.20700
H809        H  0.09582048  0.54162432  0.60911177     0.10500
C810        C  0.97999405  0.54910045  0.62551987    -0.15500
C811        C  0.95377064  0.53810624  0.63228513     0.03500
C812        C  0.95182844  0.51539907  0.65101646    -0.10800
C813        C  0.97739079  0.50220584  0.65632942    -0.00800
C814        C  0.00070931  0.50766490  0.64167834    -0.06000
H815        H  0.98153904  0.56894116  0.61554092     0.06500
H816        H  0.98028661  0.48703438  0.67140464     0.09900
Br817      Br  0.04429515  0.53939780  0.57958337    -0.05700
Br818      Br  0.07027200  0.54898299  0.70750879    -0.02600
Br819      Br  0.92336414  0.55506238  0.61374664     0.00200
Br820      Br  0.02726145  0.47901097  0.63588301    -0.04200
C821        C  0.05774941  0.42389208  0.77976492    -0.11600
C822        C  0.07697993  0.44596350  0.78399843     0.03900
C823        C  0.09118973  0.45776630  0.76263891    -0.12100
C824        C  0.09136129  0.44506116  0.73793740     0.18800
C825        C  0.07893596  0.41873737  0.73567916    -0.09100
C826        C  0.06207624  0.40865670  0.75607469    -0.02100
H827        H  0.10357810  0.47620162  0.76573147     0.05300
C828        C  0.10057462  0.46150334  0.71449115     0.20700
H829        H  0.05035850  0.38990201  0.75249399     0.10500
C830        C  0.12807235  0.46978149  0.71064517    -0.15500
C831        C  0.13501031  0.48945754  0.69088321     0.03500
C832        C  0.11380244  0.50445227  0.67730202    -0.10800
C833        C  0.08779401  0.49105487  0.67779047    -0.00800
C834        C  0.08093937  0.47101021  0.69644823    -0.06000
H835        H  0.14416324  0.46069844  0.72271754     0.06500
H836        H  0.07165140  0.49680624  0.66446724     0.09900
Br837      Br  0.08270269  0.39697523  0.70427851    -0.05700
Br838      Br  0.09883978  0.44849267  0.81543796    -0.02600
Br839      Br  0.17343460  0.49234521  0.68200896     0.00200
Br840      Br  0.04348261  0.45918969  0.69792036    -0.04200
C841        C  0.12711659  0.55771780  0.68018545    -0.11600
C842        C  0.12005876  0.58620663  0.67504629     0.03900
C843        C  0.11930498  0.60538132  0.69585888    -0.12100
C844        C  0.12988191  0.59840868  0.72075617     0.18800
C845        C  0.14615287  0.57425737  0.72216052    -0.09100
C846        C  0.14199209  0.55315204  0.70381500    -0.02100
H847        H  0.10865809  0.62485383  0.69275890     0.05300
C848        C  0.11543385  0.60838525  0.74508650     0.20700
H849        H  0.15121942  0.53354174  0.70869046     0.10500
C850        C  0.10791929  0.58809029  0.76341684    -0.15500
C851        C  0.08699946  0.59223600  0.78135636     0.03500
C852        C  0.06881722  0.61564344  0.77805359    -0.10800
C853        C  0.08053915  0.63860521  0.76462353    -0.00800
C854        C  0.10398045  0.63519559  0.74837512    -0.06000
H855        H  0.11708755  0.56763120  0.76307124     0.06500
H856        H  0.06982947  0.65836115  0.76432358     0.09900
Br857      Br  0.17177281  0.56806805  0.75051622    -0.05700
Br858      Br  0.11116068  0.60087429  0.64078326    -0.02600
Br859      Br  0.08832614  0.56423958  0.80890740     0.00200
Br860      Br  0.11783172  0.66686772  0.72971476    -0.04200
C861        C  0.13825454  0.52805749  0.63867242    -0.11600
C862        C  0.16368089  0.54264044  0.63405096     0.03900
C863        C  0.17878935  0.53770448  0.61112050    -0.12100
C864        C  0.17045575  0.51829284  0.59248678     0.18800
C865        C  0.14701260  0.50218225  0.59747114    -0.09100
C866        C  0.13173206  0.50656110  0.62054705    -0.02100
H867        H  0.19759280  0.54928256  0.60764134     0.05300
C868        C  0.18704006  0.51586169  0.56813379     0.20700
H869        H  0.11351681  0.49400692  0.62362389     0.10500
C870        C  0.20985956  0.49799221  0.56780713    -0.15500
C871        C  0.22916324  0.49910570  0.54731230     0.03500
C872        C  0.22569300  0.51843653  0.52644765    -0.10800
C873        C  0.20238346  0.53583071  0.52663351    -0.00800
C874        C  0.18326749  0.53472458  0.54723319    -0.06000
H875        H  0.21335145  0.48400479  0.58423145     0.06500
H876        H  0.19919692  0.55072289  0.51088836     0.09900
Br877      Br  0.13448973  0.47494957  0.57271776    -0.05700
Br878      Br  0.18278993  0.56795503  0.65703704    -0.02600
Br879      Br  0.26091287  0.47543053  0.55062247     0.00200
Br880      Br  0.15294081  0.56034120  0.54684249    -0.04200
C881        C  0.51361229  0.89592397  0.65577727    -0.11600
C882        C  0.49194365  0.87620432  0.64969632     0.03900
C883        C  0.49522241  0.85718056  0.62894641    -0.12100
C884        C  0.51658764  0.85947110  0.61089218     0.18800
C885        C  0.53524694  0.88123990  0.61362171    -0.09100
C886        C  0.53358266  0.89881493  0.63546221    -0.02100
H887        H  0.47946479  0.84168784  0.62526896     0.05300
C888        C  0.51732610  0.84029713  0.58812564     0.20700
H889        H  0.54858561  0.91528348  0.63627082     0.10500
C890        C  0.50484116  0.84816048  0.56430891    -0.15500
C891        C  0.50365937  0.82973385  0.54295665     0.03500
C892        C  0.51482633  0.80264485  0.54544034    -0.10800
C893        C  0.52779134  0.79518262  0.56923146    -0.00800
C894        C  0.52910885  0.81371717  0.59039551    -0.06000
H895        H  0.49595935  0.86873948  0.56235957     0.06500
H896        H  0.53679581  0.77469799  0.57151335     0.09900
Br897      Br  0.56365208  0.88759952  0.58808805    -0.05700
Br898      Br  0.45346706  0.87651706  0.65911670    -0.02600
Br899      Br  0.48796445  0.84353610  0.51072171     0.00200
Br900      Br  0.54740358  0.80204811  0.62205358    -0.04200
C901        C  0.60834631  0.00807751  0.76932749    -0.11600
C902        C  0.58821356  0.00612653  0.74862732     0.03900
C903        C  0.58595743  0.98220461  0.73340306    -0.12100
C904        C  0.59928075  0.95765513  0.74019936     0.18800
C905        C  0.61914370  0.95849261  0.76033170    -0.09100
C906        C  0.62436832  0.98362057  0.77384090    -0.02100
H907        H  0.57194397  0.98214683  0.71688489     0.05300
C908        C  0.58753524  0.93175921  0.72864249     0.20700
H909        H  0.63945973  0.98277157  0.78942434     0.10500
C910        C  0.59276973  0.92473476  0.70238949    -0.15500
C911        C  0.57279582  0.91030525  0.68750449     0.03500
C912        C  0.54499970  0.90928597  0.69683373    -0.10800
C913        C  0.54394053  0.90739691  0.72486788    -0.00800
C914        C  0.56466070  0.91923130  0.74060879    -0.06000
H915        H  0.61233117  0.93019307  0.69358650     0.06500
H916        H  0.52581782  0.90003263  0.73497610     0.09900
Br917      Br  0.63899302  0.92568829  0.77032939    -0.05700
Br918      Br  0.56147354  0.03406450  0.73912390    -0.02600
Br919      Br  0.58796349  0.88505284  0.66222830     0.00200
Br920      Br  0.55952153  0.92074064  0.77792991    -0.04200
C921        C  0.63445484  0.03387295  0.80791639    -0.11600
C922        C  0.63150471  0.03833672  0.83589356     0.03900
C923        C  0.65401778  0.03463668  0.85260808    -0.12100
C924        C  0.68021629  0.02909415  0.84294997     0.18800
C925        C  0.68415931  0.02681822  0.81572898    -0.09100
C926        C  0.66160940  0.02942784  0.79858682    -0.02100
H927        H  0.65140506  0.03752593  0.87363514     0.05300
C928        C  0.70305190  0.02769085  0.86214367     0.20700
H929        H  0.66523705  0.02753260  0.77762836     0.10500
C930        C  0.71324916  0.00173184  0.87000916    -0.15500
C931        C  0.73126712  0.99937652  0.89148438     0.03500
C932        C  0.73927262  0.02348594  0.90554513    -0.10800
C933        C  0.72989907  0.04954296  0.89673092    -0.00800
C934        C  0.71178992  0.05174644  0.87542613    -0.06000
H935        H  0.70637807  0.98313040  0.85996985     0.06500
H936        H  0.73587475  0.06830456  0.90700861     0.09900
Br937      Br  0.72011424  0.02095674  0.80125182    -0.05700
Br938      Br  0.60047064  0.05375521  0.85492039    -0.02600
Br939      Br  0.74382214  0.96259676  0.90026391     0.00200
Br940      Br  0.69846293  0.08797380  0.86582678    -0.04200
C941        C  0.49374134  0.91877362  0.70123330    -0.11600
C942        C  0.49176065  0.94252696  0.71809563     0.03900
C943        C  0.47062181  0.94482608  0.73616732    -0.12100
C944        C  0.44897964  0.92627769  0.73696573     0.18800
C945        C  0.45293657  0.90048234  0.72458525    -0.09100
C946        C  0.47707618  0.89611476  0.70927124    -0.02100
H947        H  0.47057300  0.96210984  0.74952859     0.05300
C948        C  0.42321940  0.93693170  0.74954202     0.20700
H949        H  0.48225471  0.87530082  0.70305083     0.10500
C950        C  0.40862690  0.95738096  0.73539451    -0.15500
C951        C  0.39888243  0.98155756  0.74796171     0.03500
C952        C  0.40544352  0.98604831  0.77499926    -0.10800
C953        C  0.41038080  0.96138994  0.78967634    -0.00800
C954        C  0.42083784  0.93747235  0.77714419    -0.06000
H955        H  0.40789529  0.95630679  0.71409569     0.06500
H956        H  0.41170610  0.96227691  0.81084353     0.09900
Br957      Br  0.42670508  0.87121584  0.72874037    -0.05700
Br958      Br  0.51736110  0.97260832  0.72057862    -0.02600
Br959      Br  0.37678375  0.00626433  0.72685648     0.00200
Br960      Br  0.43716589  0.90893770  0.79839233    -0.04200
C961        C  0.43963963  0.01834710  0.80111888    -0.11600
C962        C  0.44809994  0.04256569  0.81540705     0.03900
C963        C  0.47571599  0.04594398  0.82299030    -0.12100
C964        C  0.49600503  0.02692654  0.81525810     0.18800
C965        C  0.48752919  0.00204259  0.80333450    -0.09100
C966        C  0.46007996  0.99793657  0.79715688    -0.02100
H967        H  0.48165423  0.06445486  0.83368660     0.05300
C968        C  0.52573910  0.03431927  0.81608984     0.20700
H969        H  0.45606889  0.97919389  0.78659358     0.10500
C970        C  0.54464613  0.01469359  0.82526546    -0.15500
C971        C  0.57181336  0.01454678  0.81633204     0.03500
C972        C  0.58202369  0.03689565  0.80036514    -0.10800
C973        C  0.56361691  0.05932097  0.79575911    -0.00800
C974        C  0.53579180  0.05784425  0.80279645    -0.06000
H975        H  0.53740299  0.99744534  0.83711861     0.06500
H976        H  0.56944158  0.07699750  0.78414091     0.09900
Br977      Br  0.51221394  0.97351123  0.79148987    -0.05700
Br978      Br  0.42387778  0.07207283  0.82615842    -0.02600
Br979      Br  0.59290699  0.98287925  0.82797812     0.00200
Br980      Br  0.51192163  0.08711775  0.79086974    -0.04200
C981        C  0.38763229  0.01709971  0.81031469    -0.11600
C982        C  0.39222447  0.01162325  0.83786792     0.03900
C983        C  0.37093979  0.01516119  0.85593706    -0.12100
C984        C  0.34422886  0.02152325  0.84796304     0.18800
C985        C  0.33846363  0.02375196  0.82090268    -0.09100
C986        C  0.35988790  0.02116014  0.80247426    -0.02100
H987        H  0.37503090  0.01183305  0.87671393     0.05300
C988        C  0.32318459  0.02458465  0.86889056     0.20700
H989        H  0.35487664  0.02291106  0.78176315     0.10500
C990        C  0.32564362  0.04685248  0.88655598    -0.15500
C991        C  0.31003930  0.04790398  0.90971841     0.03500
C992        C  0.29088127  0.02654679  0.91531426    -0.10800
C993        C  0.28816869  0.00454298  0.89727081    -0.00800
C994        C  0.30440138  0.00317026  0.87456105    -0.06000
H995        H  0.34088044  0.06283774  0.88292352     0.06500
H996        H  0.27393554  0.98773615  0.90122426     0.09900
Br997      Br  0.30183875  0.03071343  0.80828344    -0.05700
Br998      Br  0.42467146  0.99585495  0.85426299    -0.02600
Br999      Br  0.31810584  0.07769848  0.93365509     0.00200
Br1000     Br  0.30220860  0.97022080  0.85345953    -0.04200
C1001       C  0.51087061  0.09199106  0.66664109    -0.11600
C1002       C  0.50637821  0.07107326  0.68628776     0.03900
C1003       C  0.50829686  0.04300447  0.68017877    -0.12100
C1004       C  0.51657277  0.03408402  0.65543742     0.18800
C1005       C  0.52422113  0.05387540  0.63659558    -0.09100
C1006       C  0.52235508  0.08230530  0.64258956    -0.02100
H1007       H  0.50390723  0.02773177  0.69529179     0.05300
C1008       C  0.51866266  0.00375775  0.65154882     0.20700
H1009       H  0.53027084  0.09634933  0.62802200     0.10500
C1010       C  0.49439286  0.98841104  0.65031236    -0.15500
C1011       C  0.49389163  0.96018298  0.65707218     0.03500
C1012       C  0.51831314  0.94633940  0.66632629    -0.10800
C1013       C  0.54311782  0.96171714  0.66339929    -0.00800
C1014       C  0.54337660  0.98984550  0.65665958    -0.06000
H1015       H  0.47517682  0.99912040  0.64616529     0.06500
H1016       H  0.56307813  0.95305465  0.66723873     0.09900
Br1017     Br  0.53683958  0.04303101  0.60239306    -0.05700
Br1018     Br  0.49959075  0.07733474  0.72290207    -0.02600
Br1019     Br  0.45772722  0.94457811  0.65595722     0.00200
Br1020     Br  0.57782291  0.00917499  0.65785692    -0.04200
C1021       C  0.61756344  0.06118081  0.76851795    -0.11600
C1022       C  0.61852591  0.08940741  0.77706737     0.03900
C1023       C  0.61220760  0.11087728  0.75916197    -0.12100
C1024       C  0.60453635  0.10478220  0.73315332     0.18800
C1025       C  0.61349281  0.07871829  0.72338390    -0.09100
C1026       C  0.62170369  0.05788025  0.74112222    -0.02100
H1027       H  0.61092112  0.13203359  0.76622290     0.05300
C1028       C  0.58268504  0.12182072  0.71920605     0.20700
H1029       H  0.62781491  0.03808387  0.73298671     0.10500
C1030       C  0.58357400  0.12609786  0.69197788    -0.15500
C1031       C  0.55945860  0.13085356  0.67714586     0.03500
C1032       C  0.53274407  0.13030130  0.68938382    -0.10800
C1033       C  0.53345901  0.13170984  0.71726156    -0.00800
C1034       C  0.55786121  0.12919039  0.73182847    -0.06000
H1035       H  0.60315508  0.12471882  0.68191582     0.06500
H1036       H  0.51545351  0.13222508  0.72914161     0.09900
Br1037     Br  0.61213151  0.06809677  0.68700786    -0.05700
Br1038     Br  0.62652083  0.10112954  0.81215969    -0.02600
Br1039     Br  0.56627119  0.13770857  0.64043154     0.00200
Br1040     Br  0.55497302  0.13705024  0.76878042    -0.04200
C1041       C  0.41052784  0.04002740  0.76782066    -0.11600
C1042       C  0.42991171  0.04022807  0.74664127     0.03900
C1043       C  0.43244664  0.06269301  0.72992006    -0.12100
C1044       C  0.41912293  0.08772132  0.73431947     0.18800
C1045       C  0.39909070  0.08858178  0.75431824    -0.09100
C1046       C  0.39451251  0.06483250  0.77042775    -0.02100
H1047       H  0.44639983  0.06093719  0.71342134     0.05300
C1048       C  0.42861035  0.11124099  0.71721149     0.20700
H1049       H  0.37963592  0.06697359  0.78601787     0.10500
C1050       C  0.42860975  0.10580903  0.69019940    -0.15500
C1051       C  0.45240193  0.11026266  0.67513706     0.03500
C1052       C  0.47570697  0.12491816  0.68597262    -0.10800
C1053       C  0.46981187  0.13926950  0.70967180    -0.00800
C1054       C  0.44829865  0.13042159  0.72638874    -0.06000
H1055       H  0.41273637  0.09227058  0.68239018     0.06500
H1056       H  0.48283494  0.15572828  0.71662801     0.09900
Br1057     Br  0.37712025  0.12114050  0.75968574    -0.05700
Br1058     Br  0.45592469  0.01238739  0.73757908    -0.02600
Br1059     Br  0.45088712  0.09067283  0.64226561     0.00200
Br1060     Br  0.44962015  0.14130484  0.76261936    -0.04200
C1061       C  0.50334839  0.14471076  0.64931690    -0.11600
C1062       C  0.50663803  0.17405615  0.65299626     0.03900
C1063       C  0.50553057  0.19240776  0.63149362    -0.12100
C1064       C  0.50037059  0.18287272  0.60603565     0.18800
C1065       C  0.49543659  0.15460568  0.60211222    -0.09100
C1066       C  0.49637776  0.13621256  0.62338213    -0.02100
H1067       H  0.50889971  0.21441565  0.63463587     0.05300
C1068       C  0.50090945  0.20254503  0.58363993     0.20700
H1069       H  0.49166636  0.11516213  0.61859108     0.10500
C1070       C  0.52599417  0.20786931  0.57111476    -0.15500
C1071       C  0.52749783  0.22610289  0.54964969     0.03500
C1072       C  0.50331023  0.23943236  0.54018871    -0.10800
C1073       C  0.47814848  0.23386324  0.55291677    -0.00800
C1074       C  0.47684895  0.21567784  0.57446289    -0.06000
H1075       H  0.54457284  0.19772567  0.57813412     0.06500
H1076       H  0.45934444  0.24377367  0.54620159     0.09900
Br1077     Br  0.48764007  0.13997395  0.56774282    -0.05700
Br1078     Br  0.51338156  0.19186988  0.68618756    -0.02600
Br1079     Br  0.56347815  0.23163036  0.53483406     0.00200
Br1080     Br  0.44189333  0.20938657  0.59095004    -0.04200
loop_ 
_geom_bond_atom_site_label_1 
_geom_bond_atom_site_label_2 
_geom_bond_distance 
_geom_bond_site_symmetry_2 
_ccdc_geom_bond_type 
C1         C1001   1.577       .  S
C1         C1032   1.593       .  S
C1         C1052   1.596       .  S
C1         C1061   1.573       .  S
C2          C952   1.587   1_545  S
C2          C961   1.568       .  S
C2          C981   1.564       .  S
C2         C1041   1.584       .  S
C3          C901   1.590       .  S
C3          C921   1.565       .  S
C3          C972   1.563       .  S
C3         C1021   1.588       .  S
C4          C881   1.595       .  S
C4          C912   1.622       .  S
C4          C941   1.582       .  S
C4         C1012   1.591       .  S
C5          C801   1.591       .  S
C5          C832   1.602       .  S
C5          C841   1.574       .  S
C5          C861   1.570       .  S
C6          C741   1.577       .  S
C6          C761   1.593       .  S
C6          C792   1.568       .  S
C6          C821   1.601       .  S
C7          C712   1.593       .  S
C7          C732   1.571       .  S
C7          C772   1.565       .  S
C7          C852   1.577       .  S
C8          C692   1.558       .  S
C8          C701   1.598       .  S
C8          C752   1.601       .  S
C8          C812   1.605       .  S
In9          O11   2.261       .  S
In9          O12   2.237       .  S
In9          O20   2.253       .  S
In9          O14   2.263       .  S
In9          O16   2.253       .  S
In9          O17   2.258       .  S
In9          O18   2.264       .  S
In9          O21   2.257       .  S
C10          O16   1.259       .  A
C10          O18   1.260       .  A
C10         C892   1.486       .  S
O11          C19   1.262       .  A
O12          C19   1.260       .  A
C13          O20   1.258       .  A
C13          O14   1.262       .  A
C13         C652   1.492       .  S
C15          O17   1.259       .  A
C15          O21   1.261       .  A
C15         C621   1.492       .  S
C19         C661   1.489       .  S
In22         O24   2.250       .  S
In22         O25   2.250       .  S
In22         O33   2.251       .  S
In22         O27   2.264       .  S
In22         O29   2.253       .  S
In22         O30   2.280       .  S
In22         O31   2.266       .  S
In22         O34   2.255       .  S
C23          O29   1.260       .  A
C23          O31   1.261       .  A
C23         C581   1.489       .  S
O24          C32   1.262       .  A
O25          C32   1.261       .  A
C26          O33   1.260       .  A
C26          O27   1.261       .  A
C26         C612   1.488       .  S
C28          O30   1.260       .  A
C28          O34   1.256       .  A
C28         C681   1.494       .  S
C32         C672   1.485       .  S
In35         O37   2.271       .  S
In35         O38   2.258       .  S
In35         O46   2.275       .  S
In35         O40   2.238       .  S
In35         O42   2.248       .  S
In35         O43   2.256       .  S
In35         O44   2.269       .  S
In35         O47   2.263       .  S
C36          O42   1.257       .  A
C36          O44   1.263       .  A
C36         C872   1.489       .  S
O37          C45   1.259       .  A
O38          C45   1.258       .  A
C39          O46   1.262       .  A
C39          O40   1.258       .  A
C39         C561   1.482       .  S
C41          O43   1.258       .  A
C41          O47   1.260       .  A
C41         C552   1.488       .  S
C45         C641   1.489       .  S
In48         O50   2.247       .  S
In48         O51   2.259       .  S
In48         O59   2.266       .  S
In48         O53   2.262       .  S
In48         O55   2.263       .  S
In48         O56   2.241       .  S
In48         O57   2.252       .  S
In48         O60   2.264       .  S
C49          O55   1.261       .  A
C49          O57   1.259       .  A
C49         C532   1.492       .  S
O50          C58   1.261       .  A
O51          C58   1.260       .  A
C52          O59   1.259       .  A
C52          O53   1.260       .  A
C52         C572   1.493       .  S
C54          O56   1.258       .  A
C54          O60   1.262       .  A
C54        C1072   1.490       .  S
C58         C601   1.490       .  S
C61         C441   1.595       .  S
C61         C461   1.585       .  S
C61         C481   1.594   1_545  S
C61         C512   1.576       .  S
C62         C412   1.582       .  S
C62         C432   1.570       .  S
C62         C492   1.576       .  S
C62         C632   1.582       .  S
C63         C361   1.582       .  S
C63         C381   1.578       .  S
C63         C421   1.596       .  S
C63         C452   1.594       .  S
C64         C372   1.593       .  S
C64         C401   1.589       .  S
C64         C472   1.587       .  S
C64         C521   1.588       .  S
C65         C292   1.599       .  S
C65         C312   1.593   1_655  S
C65         C332   1.597       .  S
C65         C352   1.565       .  S
C66         C241   1.588       .  S
C66         C272   1.600       .  S
C66         C321   1.588       .  S
C66         C592   1.564       .  S
C67         C201   1.593   1_655  S
C67         C221   1.571       .  S
C67         C261   1.580       .  S
C67         C281   1.575       .  S
C68         C212   1.589       .  S
C68         C252   1.582       .  S
C68         C301   1.588       .  S
C68         C541   1.578       .  S
In69         O71   2.253   1_545  S
In69         O72   2.261   1_545  S
In69         O80   2.272       .  S
In69         O74   2.244       .  S
In69         O76   2.247       .  S
In69         O77   2.267       .  S
In69         O78   2.233       .  S
In69         O81   2.259   1_556  S
C70          O76   1.264       .  A
C70          O78   1.259       .  A
C70         C932   1.482       .  S
O71          C79   1.256       .  A
O72          C79   1.261       .  A
C73          O80   1.259       .  A
C73          O74   1.257       .  A
C73         C161   1.484       .  S
C75          O77   1.261   1_554  A
C75          O81   1.263       .  A
C75         C392   1.493       .  S
C79         C181   1.490       .  S
In82         O84   2.245   1_455  S
In82         O85   2.262   1_455  S
In82         O93   2.267       .  S
In82         O87   2.244       .  S
In82         O89   2.269   1_556  S
In82         O90   2.251       .  S
In82         O91   2.266   1_455  S
In82         O94   2.245       .  S
C83          O89   1.259       .  A
C83          O91   1.258   1_454  A
C83         C232   1.488       .  S
O84          C92   1.260       .  A
O85          C92   1.259       .  A
C86          O93   1.262       .  A
C86          O87   1.261       .  A
C86         C152   1.493       .  S
C88          O90   1.259       .  A
C88          O94   1.261       .  A
C88         C721   1.481       .  S
C92         C192   1.480       .  S
In95         O97   2.245   1_456  S
In95         O98   2.265   1_455  S
In95        O106   2.258   1_556  S
In95        O100   2.253       .  S
In95        O102   2.272       .  S
In95        O103   2.254   1_456  S
In95        O104   2.260       .  S
In95        O107   2.244   1_556  S
C96         O102   1.260       .  A
C96         O104   1.255       .  A
C96         C781   1.493       .  S
O97         C105   1.258   1_554  A
O98         C105   1.263       .  A
C99         O106   1.259   1_556  A
C99         O100   1.258       .  A
C99         C121   1.482       .  S
C101        O103   1.263   1_455  A
C101        O107   1.263       .  A
C101        C341   1.488       .  S
C105        C172   1.489       .  S
In108       O110   2.256       .  S
In108       O111   2.266   1_545  S
In108       O119   2.249   1_556  S
In108       O113   2.247       .  S
In108       O115   2.265   1_556  S
In108       O116   2.250       .  S
In108       O117   2.267   1_556  S
In108       O120   2.256       .  S
C109        O115   1.259       .  A
C109        O117   1.259       .  A
C109        C501   1.494       .  S
O110        C118   1.259   1_545  A
O111        C118   1.263       .  A
C112        O119   1.261   1_556  A
C112        O113   1.259       .  A
C112        C132   1.485       .  S
C114        O116   1.261       .  A
C114        O120   1.260       .  A
C114        C992   1.488       .  S
C118        C141   1.493       .  S
C121        C122   1.415       .  A
C121        C126   1.407   1_556  A
C122        C123   1.399       .  A
C122       Br138   1.921       .  S
C123        C124   1.400       .  A
C123        H127   1.084       .  S
C124        C128   1.476       .  S
C124        C125   1.405   1_556  A
C125        C126   1.400       .  A
C125       Br137   1.917       .  S
C126        H129   1.083       .  S
C128        C130   1.400       .  A
C128        C134   1.405   1_556  A
C130        C131   1.401       .  A
C130        H135   1.084       .  S
C131        C132   1.417       .  A
C131       Br139   1.921       .  S
C132        C133   1.407   1_556  A
C133        C134   1.398       .  A
C133        H136   1.083       .  S
C134       Br140   1.918       .  S
C141        C142   1.419       .  A
C141        C146   1.408   1_556  A
C142        C143   1.404       .  A
C142       Br158   1.921       .  S
C143        C144   1.401       .  A
C143        H147   1.084       .  S
C144        C148   1.485       .  S
C144        C145   1.407       .  A
C145        C146   1.402   1_556  A
C145       Br157   1.918   1_556  S
C146        H149   1.083       .  S
C148        C150   1.403       .  A
C148        C154   1.405       .  A
C150        C151   1.406       .  A
C150        H155   1.083       .  S
C151        C152   1.418       .  A
C151       Br159   1.921       .  S
C152        C153   1.409       .  A
C153        C154   1.399       .  A
C153        H156   1.083       .  S
C154       Br160   1.918       .  S
C161        C162   1.416   1_556  A
C161        C166   1.406       .  A
C162        C163   1.404       .  A
C162       Br178   1.920       .  S
C163        C164   1.403   1_554  A
C163        H167   1.083       .  S
C164        C168   1.480       .  S
C164        C165   1.405       .  A
C165        C166   1.397       .  A
C165       Br177   1.918       .  S
C166        H169   1.083       .  S
C168        C170   1.400       .  A
C168        C174   1.405       .  A
C170        C171   1.401       .  A
C170        H175   1.084   1_556  S
C171        C172   1.418       .  A
C171       Br179   1.922   1_556  S
C172        C173   1.408       .  A
C173        C174   1.402       .  A
C173        H176   1.083       .  S
C174       Br180   1.918       .  S
C181        C182   1.414       .  A
C181        C186   1.412       .  A
C182        C183   1.397       .  A
C182       Br198   1.919   1_556  S
C183        C184   1.401       .  A
C183        H187   1.084   1_556  S
C184        C188   1.483       .  S
C184        C185   1.407       .  A
C185        C186   1.403       .  A
C185       Br197   1.920       .  S
C186        H189   1.083       .  S
C188        C190   1.404       .  A
C188        C194   1.409       .  A
C190        C191   1.404       .  A
C190        H195   1.083       .  S
C191        C192   1.413       .  A
C191       Br199   1.919       .  S
C192        C193   1.403       .  A
C193        C194   1.396       .  A
C193        H196   1.084       .  S
C194       Br200   1.920       .  S
C201        C202   1.425       .  A
C201        C206   1.425       .  A
C202        C203   1.415       .  A
C202       Br218   1.917       .  S
C203        C204   1.408       .  A
C203        H207   1.083       .  S
C204        C208   1.491       .  S
C204        C205   1.400       .  A
C205        C206   1.390       .  A
C205       Br217   1.914       .  S
C206        H209   1.079       .  S
C208        C210   1.389       .  A
C208        C214   1.414       .  A
C210        C211   1.394       .  A
C210        H215   1.083       .  S
C211        C212   1.433       .  A
C211       Br219   1.918       .  S
C212        C213   1.412       .  A
C213        C214   1.416       .  A
C213        H216   1.083       .  S
C214       Br220   1.914       .  S
C221        C222   1.437       .  A
C221        C226   1.420   1_655  A
C222        C223   1.405       .  A
C222       Br238   1.927       .  S
C223        C224   1.397   1_655  A
C223        H227   1.084       .  S
C224        C228   1.483       .  S
C224        C225   1.399       .  A
C225        C226   1.398       .  A
C225       Br237   1.918       .  S
C226        H229   1.082       .  S
C228        C230   1.401       .  A
C228        C234   1.408   1_455  A
C230        C231   1.402       .  A
C230        H235   1.084       .  S
C231        C232   1.414       .  A
C231       Br239   1.919       .  S
C232        C233   1.408   1_455  A
C233        C234   1.403       .  A
C233        H236   1.083       .  S
C234       Br240   1.919       .  S
C241        C242   1.441       .  A
C241        C246   1.419       .  A
C242        C243   1.402       .  A
C242       Br258   1.915       .  S
C243        C244   1.391       .  A
C243        H247   1.084       .  S
C244        C248   1.483   1_655  S
C244        C245   1.400       .  A
C245        C246   1.393       .  A
C245       Br257   1.910       .  S
C246        H249   1.071       .  S
C248        C250   1.396       .  A
C248        C254   1.418       .  A
C250        C251   1.380       .  A
C250        H255   1.086       .  S
C251        C252   1.417       .  A
C251       Br259   1.909       .  S
C252        C253   1.420       .  A
C253        C254   1.419       .  A
C253        H256   1.079       .  S
C254       Br260   1.915       .  S
C261        C262   1.434       .  A
C261        C266   1.416       .  A
C262        C263   1.407       .  A
C262       Br278   1.926       .  S
C263        C264   1.402       .  A
C263        H267   1.082       .  S
C264        C268   1.523       .  S
C264        C265   1.418       .  A
C265        C266   1.406       .  A
C265       Br277   1.917       .  S
C266        H269   1.071       .  S
C268        C270   1.412       .  A
C268        C274   1.423       .  A
C270        C271   1.416       .  A
C270        H275   1.080       .  S
C271        C272   1.428       .  A
C271       Br279   1.916       .  S
C272        C273   1.413       .  A
C273        C274   1.400       .  A
C273        H276   1.080       .  S
C274       Br280   1.926       .  S
C281        C282   1.432       .  A
C281        C286   1.427       .  A
C282        C283   1.379       .  A
C282       Br298   1.929       .  S
C283        C284   1.386       .  A
C283        H287   1.068       .  S
C284        C288   1.480       .  S
C284        C285   1.400       .  A
C285        C286   1.408       .  A
C285       Br297   1.915       .  S
C286        H289   1.077       .  S
C288        C290   1.392       .  A
C288        C294   1.402   1_655  A
C290        C291   1.402       .  A
C290        H295   1.084       .  S
C291        C292   1.434       .  A
C291       Br299   1.907       .  S
C292        C293   1.427   1_655  A
C293        C294   1.402       .  A
C293        H296   1.082       .  S
C294       Br300   1.917       .  S
C301        C302   1.436       .  A
C301        C306   1.425       .  A
C302        C303   1.415       .  A
C302       Br318   1.924       .  S
C303        C304   1.403       .  A
C303        H307   1.083       .  S
C304        C308   1.491       .  S
C304        C305   1.394       .  A
C305        C306   1.397       .  A
C305       Br317   1.918       .  S
C306        H309   1.060       .  S
C308        C310   1.390       .  A
C308        C314   1.402       .  A
C310        C311   1.382       .  A
C310        H315   1.084       .  S
C311        C312   1.431       .  A
C311       Br319   1.909   1_455  S
C312        C313   1.429       .  A
C313        C314   1.415       .  A
C313        H316   1.076       .  S
C314       Br320   1.913       .  S
C321        C322   1.447       .  A
C321        C326   1.419       .  A
C322        C323   1.422       .  A
C322       Br338   1.925       .  S
C323        C324   1.402       .  A
C323        H327   1.083       .  S
C324        C328   1.491       .  S
C324        C325   1.388       .  A
C325        C326   1.383       .  A
C325       Br337   1.899       .  S
C326        H329   1.082       .  S
C328        C330   1.403       .  A
C328        C334   1.403       .  A
C330        C331   1.416       .  A
C330        H335   1.083       .  S
C331        C332   1.426       .  A
C331       Br339   1.928       .  S
C332        C333   1.423       .  A
C333        C334   1.400       .  A
C333        H336   1.078       .  S
C334       Br340   1.920       .  S
C341        C342   1.416   1_455  A
C341        C346   1.408       .  A
C342        C343   1.403       .  A
C342       Br358   1.920       .  S
C343        C344   1.401   1_655  A
C343        H347   1.084       .  S
C344        C348   1.482   1_455  S
C344        C345   1.407       .  A
C345        C346   1.400       .  A
C345       Br357   1.919       .  S
C346        H349   1.083       .  S
C348        C350   1.399       .  A
C348        C354   1.400       .  A
C350        C351   1.405       .  A
C350        H355   1.083   1_655  S
C351        C352   1.430       .  A
C351       Br359   1.923   1_655  S
C352        C353   1.422       .  A
C353        C354   1.395       .  A
C353        H356   1.078       .  S
C354       Br360   1.922       .  S
C361        C362   1.425       .  A
C361        C366   1.420       .  A
C362        C363   1.419       .  A
C362       Br378   1.913       .  S
C363        C364   1.409       .  A
C363        H367   1.078       .  S
C364        C368   1.529       .  S
C364        C365   1.414       .  A
C365        C366   1.403       .  A
C365       Br377   1.922       .  S
C366        H369   1.079       .  S
C368        C370   1.398       .  A
C368        C374   1.423       .  A
C370        C371   1.385       .  A
C370        H375   1.076       .  S
C371        C372   1.432       .  A
C371       Br379   1.917       .  S
C372        C373   1.418       .  A
C373        C374   1.430       .  A
C373        H376   1.082       .  S
C374       Br380   1.915       .  S
C381        C382   1.437       .  A
C381        C386   1.422       .  A
C382        C383   1.412       .  A
C382       Br398   1.925   1_545  S
C383        C384   1.401       .  A
C383        H387   1.084   1_545  S
C384        C388   1.489       .  S
C384        C385   1.397       .  A
C385        C386   1.394       .  A
C385       Br397   1.920       .  S
C386        H389   1.076       .  S
C388        C390   1.404       .  A
C388        C394   1.407       .  A
C390        C391   1.405       .  A
C390        H395   1.084       .  S
C391        C392   1.417       .  A
C391       Br399   1.920   1_545  S
C392        C393   1.408       .  A
C393        C394   1.402       .  A
C393        H396   1.083       .  S
C394       Br400   1.917       .  S
C401        C402   1.431       .  A
C401        C406   1.427       .  A
C402        C403   1.404       .  A
C402       Br418   1.909       .  S
C403        C404   1.403       .  A
C403        H407   1.083       .  S
C404        C408   1.495       .  S
C404        C405   1.400       .  A
C405        C406   1.398       .  A
C405       Br417   1.920       .  S
C406        H409   1.083       .  S
C408        C410   1.397   1_545  A
C408        C414   1.415   1_545  A
C410        C411   1.398       .  A
C410        H415   1.084       .  S
C411        C412   1.434       .  A
C411       Br419   1.925       .  S
C412        C413   1.414       .  A
C413        C414   1.405       .  A
C413        H416   1.075       .  S
C414       Br420   1.923   1_565  S
C421        C422   1.450       .  A
C421        C426   1.427   1_545  A
C422        C423   1.403   1_545  A
C422       Br438   1.916       .  S
C423        C424   1.387       .  A
C423        H427   1.086       .  S
C424        C428   1.487       .  S
C424        C425   1.400       .  A
C425        C426   1.406       .  A
C425       Br437   1.915       .  S
C426        H429   1.079       .  S
C428        C430   1.387       .  A
C428        C434   1.406       .  A
C430        C431   1.384       .  A
C430        H435   1.085       .  S
C431        C432   1.443       .  A
C431       Br439   1.932       .  S
C432        C433   1.421       .  A
C433        C434   1.416       .  A
C433        H436   1.078       .  S
C434       Br440   1.913       .  S
C441        C442   1.436       .  A
C441        C446   1.425   1_545  A
C442        C443   1.418       .  A
C442       Br458   1.918       .  S
C443        C444   1.402   1_545  A
C443        H447   1.083       .  S
C444        C448   1.493   1_565  S
C444        C445   1.396       .  A
C445        C446   1.391       .  A
C445       Br457   1.912       .  S
C446        H449   1.080       .  S
C448        C450   1.390       .  A
C448        C454   1.405       .  A
C450        C451   1.391       .  A
C450        H455   1.083       .  S
C451        C452   1.423       .  A
C451       Br459   1.884       .  S
C452        C453   1.431       .  A
C453        C454   1.416       .  A
C453        H456   1.081   1_545  S
C454       Br460   1.914   1_545  S
C461        C462   1.433       .  A
C461        C466   1.412       .  A
C462        C463   1.420       .  A
C462       Br478   1.921       .  S
C463        C464   1.407       .  A
C463        H467   1.082       .  S
C464        C468   1.506       .  S
C464        C465   1.410       .  A
C465        C466   1.384       .  A
C465       Br477   1.910       .  S
C466        H469   1.077       .  S
C468        C470   1.389       .  A
C468        C474   1.417       .  A
C470        C471   1.383       .  A
C470        H475   1.086       .  S
C471        C472   1.438       .  A
C471       Br479   1.914       .  S
C472        C473   1.422       .  A
C473        C474   1.427       .  A
C473        H476   1.078       .  S
C474       Br480   1.912       .  S
C481        C482   1.434       .  A
C481        C486   1.420       .  A
C482        C483   1.408       .  A
C482       Br498   1.926       .  S
C483        C484   1.406       .  A
C483        H487   1.084       .  S
C484        C488   1.497       .  S
C484        C485   1.404       .  A
C485        C486   1.392       .  A
C485       Br497   1.918       .  S
C486        H489   1.064   1_565  S
C488        C490   1.395       .  A
C488        C494   1.409       .  A
C490        C491   1.392       .  A
C490        H495   1.084       .  S
C491        C492   1.441       .  A
C491       Br499   1.932       .  S
C492        C493   1.419       .  A
C493        C494   1.410       .  A
C493        H496   1.081       .  S
C494       Br500   1.918       .  S
C501        C502   1.417       .  A
C501        C506   1.409       .  A
C502        C503   1.403       .  A
C502       Br518   1.920   1_545  S
C503        C504   1.402       .  A
C503        H507   1.084   1_545  S
C504        C508   1.486       .  S
C504        C505   1.407       .  A
C505        C506   1.403       .  A
C505       Br517   1.918       .  S
C506        H509   1.083       .  S
C508        C510   1.395       .  A
C508        C514   1.400   1_545  A
C510        C511   1.405       .  A
C510        H515   1.084       .  S
C511        C512   1.438       .  A
C511       Br519   1.923       .  S
C512        C513   1.423   1_545  A
C513        C514   1.400       .  A
C513        H516   1.076       .  S
C514       Br520   1.919       .  S
C521        C522   1.433       .  A
C521        C526   1.430       .  A
C522        C523   1.408       .  A
C522       Br538   1.904       .  S
C523        C524   1.395       .  A
C523        H527   1.084       .  S
C524        C528   1.481       .  S
C524        C525   1.395       .  A
C525        C526   1.394       .  A
C525       Br537   1.920       .  S
C526        H529   1.081       .  S
C528        C530   1.400       .  A
C528        C534   1.405       .  A
C530        C531   1.402       .  A
C530        H535   1.084       .  S
C531        C532   1.417       .  A
C531       Br539   1.920       .  S
C532        C533   1.410       .  A
C533        C534   1.401       .  A
C533        H536   1.083       .  S
C534       Br540   1.919       .  S
C541        C542   1.442       .  A
C541        C546   1.416       .  A
C542        C543   1.408       .  A
C542       Br558   1.926       .  S
C543        C544   1.395       .  A
C543        H547   1.084       .  S
C544        C548   1.484       .  S
C544        C545   1.396       .  A
C545        C546   1.397       .  A
C545       Br557   1.919       .  S
C546        H549   1.064       .  S
C548        C550   1.402       .  A
C548        C554   1.406       .  A
C550        C551   1.403       .  A
C550        H555   1.083       .  S
C551        C552   1.416       .  A
C551       Br559   1.921       .  S
C552        C553   1.407       .  A
C553        C554   1.401       .  A
C553        H556   1.083       .  S
C554       Br560   1.918       .  S
C561        C562   1.412       .  A
C561        C566   1.404       .  A
C562        C563   1.405       .  A
C562       Br578   1.919       .  S
C563        C564   1.407       .  A
C563        H567   1.083       .  S
C564        C568   1.489       .  S
C564        C565   1.409       .  A
C565        C566   1.398       .  A
C565       Br577   1.919       .  S
C566        H569   1.084       .  S
C568        C570   1.404       .  A
C568        C574   1.408       .  A
C570        C571   1.403       .  A
C570        H575   1.084       .  S
C571        C572   1.417       .  A
C571       Br579   1.921       .  S
C572        C573   1.408       .  A
C573        C574   1.402       .  A
C573        H576   1.083       .  S
C574       Br580   1.918       .  S
C581        C582   1.416       .  A
C581        C586   1.408       .  A
C582        C583   1.404       .  A
C582       Br598   1.920       .  S
C583        C584   1.402       .  A
C583        H587   1.084       .  S
C584        C588   1.482       .  S
C584        C585   1.405       .  A
C585        C586   1.400       .  A
C585       Br597   1.918       .  S
C586        H589   1.083       .  S
C588        C590   1.399       .  A
C588        C594   1.399       .  A
C590        C591   1.406       .  A
C590        H595   1.084       .  S
C591        C592   1.428       .  A
C591       Br599   1.920       .  S
C592        C593   1.421       .  A
C593        C594   1.396       .  A
C593        H596   1.078       .  S
C594       Br600   1.920       .  S
C601        C602   1.418       .  A
C601        C606   1.408       .  A
C602        C603   1.403       .  A
C602       Br618   1.921       .  S
C603        C604   1.402       .  A
C603        H607   1.084       .  S
C604        C608   1.481       .  S
C604        C605   1.404       .  A
C605        C606   1.399       .  A
C605       Br617   1.918       .  S
C606        H609   1.083       .  S
C608        C610   1.402       .  A
C608        C614   1.405       .  A
C610        C611   1.405       .  A
C610        H615   1.083       .  S
C611        C612   1.416       .  A
C611       Br619   1.920       .  S
C612        C613   1.407       .  A
C613        C614   1.399       .  A
C613        H616   1.083       .  S
C614       Br620   1.919       .  S
C621        C622   1.419       .  A
C621        C626   1.408       .  A
C622        C623   1.404       .  A
C622       Br638   1.921       .  S
C623        C624   1.402       .  A
C623        H627   1.084       .  S
C624        C628   1.483       .  S
C624        C625   1.405       .  A
C625        C626   1.400       .  A
C625       Br637   1.918       .  S
C626        H629   1.083       .  S
C628        C630   1.398       .  A
C628        C634   1.397       .  A
C630        C631   1.409       .  A
C630        H635   1.084       .  S
C631        C632   1.431       .  A
C631       Br639   1.908       .  S
C632        C633   1.428       .  A
C633        C634   1.395       .  A
C633        H636   1.080       .  S
C634       Br640   1.921       .  S
C641        C642   1.415       .  A
C641        C646   1.407       .  A
C642        C643   1.403       .  A
C642       Br658   1.920       .  S
C643        C644   1.404       .  A
C643        H647   1.083       .  S
C644        C648   1.489       .  S
C644        C645   1.409       .  A
C645        C646   1.401       .  A
C645       Br657   1.919       .  S
C646        H649   1.083       .  S
C648        C650   1.404       .  A
C648        C654   1.408       .  A
C650        C651   1.403       .  A
C650        H655   1.084       .  S
C651        C652   1.418       .  A
C651       Br659   1.922       .  S
C652        C653   1.407       .  A
C653        C654   1.401       .  A
C653        H656   1.083       .  S
C654       Br660   1.918       .  S
C661        C662   1.418       .  A
C661        C666   1.410       .  A
C662        C663   1.398       .  A
C662       Br678   1.922       .  S
C663        C664   1.399       .  A
C663        H667   1.084       .  S
C664        C668   1.480       .  S
C664        C665   1.406       .  A
C665        C666   1.403       .  A
C665       Br677   1.919       .  S
C666        H669   1.083       .  S
C668        C670   1.401       .  A
C668        C674   1.406       .  A
C670        C671   1.402       .  A
C670        H675   1.084       .  S
C671        C672   1.415       .  A
C671       Br679   1.920       .  S
C672        C673   1.407       .  A
C673        C674   1.400       .  A
C673        H676   1.083       .  S
C674       Br680   1.919       .  S
C681        C682   1.419       .  A
C681        C686   1.410       .  A
C682        C683   1.401       .  A
C682       Br698   1.921       .  S
C683        C684   1.399       .  A
C683        H687   1.084       .  S
C684        C688   1.482       .  S
C684        C685   1.406       .  A
C685        C686   1.404       .  A
C685       Br697   1.918       .  S
C686        H689   1.083       .  S
C688        C690   1.398       .  A
C688        C694   1.400       .  A
C690        C691   1.406       .  A
C690        H695   1.084       .  S
C691        C692   1.436       .  A
C691       Br699   1.928       .  S
C692        C693   1.418       .  A
C693        C694   1.396       .  A
C693        H696   1.080       .  S
C694       Br700   1.919       .  S
C701        C702   1.438       .  A
C701        C706   1.424       .  A
C702        C703   1.403       .  A
C702       Br718   1.916       .  S
C703        C704   1.391       .  A
C703        H707   1.085       .  S
C704        C708   1.484       .  S
C704        C705   1.397       .  A
C705        C706   1.402       .  A
C705       Br717   1.917       .  S
C706        H709   1.069       .  S
C708        C710   1.391       .  A
C708        C714   1.400       .  A
C710        C711   1.402   1_655  A
C710        H715   1.084   1_655  S
C711        C712   1.439       .  A
C711       Br719   1.905       .  S
C712        C713   1.426   1_455  A
C713        C714   1.400       .  A
C713        H716   1.081       .  S
C714       Br720   1.917       .  S
C721        C722   1.415       .  A
C721        C726   1.405       .  A
C722        C723   1.401       .  A
C722       Br738   1.921       .  S
C723        C724   1.402       .  A
C723        H727   1.084       .  S
C724        C728   1.477       .  S
C724        C725   1.406       .  A
C725        C726   1.397       .  A
C725       Br737   1.919   1_455  S
C726        H729   1.083   1_455  S
C728        C730   1.391       .  A
C728        C734   1.399       .  A
C730        C731   1.397       .  A
C730        H735   1.084       .  S
C731        C732   1.431       .  A
C731       Br739   1.904       .  S
C732        C733   1.424       .  A
C733        C734   1.401       .  A
C733        H736   1.079       .  S
C734       Br740   1.918   1_455  S
C741        C742   1.432   1_455  A
C741        C746   1.407       .  A
C742        C743   1.425       .  A
C742       Br758   1.917       .  S
C743        C744   1.410       .  A
C743        H747   1.083       .  S
C744        C748   1.493       .  S
C744        C745   1.400       .  A
C745        C746   1.377   1_655  A
C745       Br757   1.905       .  S
C746        H749   1.075       .  S
C748        C750   1.404       .  A
C748        C754   1.405       .  A
C750        C751   1.416       .  A
C750        H755   1.083       .  S
C751        C752   1.418       .  A
C751       Br759   1.916       .  S
C752        C753   1.422       .  A
C753        C754   1.406       .  A
C753        H756   1.081       .  S
C754       Br760   1.915       .  S
C761        C762   1.442   1_455  A
C761        C766   1.405       .  A
C762        C763   1.394       .  A
C762       Br778   1.931       .  S
C763        C764   1.392   1_655  A
C763        H767   1.084       .  S
C764        C768   1.475       .  S
C764        C765   1.405       .  A
C765        C766   1.408       .  A
C765       Br777   1.915       .  S
C766        H769   1.076       .  S
C768        C770   1.402       .  A
C768        C774   1.398       .  A
C770        C771   1.413       .  A
C770        H775   1.083       .  S
C771        C772   1.433       .  A
C771       Br779   1.920       .  S
C772        C773   1.417       .  A
C773        C774   1.378       .  A
C773        H776   1.082       .  S
C774       Br780   1.910       .  S
C781        C782   1.419       .  A
C781        C786   1.408       .  A
C782        C783   1.403       .  A
C782       Br798   1.922       .  S
C783        C784   1.402       .  A
C783        H787   1.084       .  S
C784        C788   1.486       .  S
C784        C785   1.406       .  A
C785        C786   1.402       .  A
C785       Br797   1.918       .  S
C786        H789   1.083       .  S
C788        C790   1.397       .  A
C788        C794   1.398       .  A
C790        C791   1.408       .  A
C790        H795   1.084       .  S
C791        C792   1.438       .  A
C791       Br799   1.922       .  S
C792        C793   1.419       .  A
C793        C794   1.397       .  A
C793        H796   1.074   1_455  S
C794       Br800   1.919   1_455  S
C801        C802   1.436       .  A
C801        C806   1.425       .  A
C802        C803   1.398       .  A
C802       Br818   1.930       .  S
C803        C804   1.400       .  A
C803        H807   1.085       .  S
C804        C808   1.488       .  S
C804        C805   1.403       .  A
C805        C806   1.409       .  A
C805       Br817   1.915       .  S
C806        H809   1.077       .  S
C808        C810   1.402   1_455  A
C808        C814   1.383       .  A
C810        C811   1.422       .  A
C810        H815   1.083       .  S
C811        C812   1.451       .  A
C811       Br819   1.928       .  S
C812        C813   1.418       .  A
C813        C814   1.381   1_655  A
C813        H816   1.066       .  S
C814       Br820   1.909       .  S
C821        C822   1.431       .  A
C821        C826   1.426       .  A
C822        C823   1.406       .  A
C822       Br838   1.919       .  S
C823        C824   1.397       .  A
C823        H827   1.084       .  S
C824        C828   1.498       .  S
C824        C825   1.409       .  A
C825        C826   1.408       .  A
C825       Br837   1.918       .  S
C826        H829   1.083       .  S
C828        C830   1.407       .  A
C828        C834   1.396       .  A
C830        C831   1.420       .  A
C830        H835   1.083       .  S
C831        C832   1.431       .  A
C831       Br839   1.925       .  S
C832        C833   1.419       .  A
C833        C834   1.392       .  A
C833        H836   1.070       .  S
C834       Br840   1.907       .  S
C841        C842   1.436       .  A
C841        C846   1.416       .  A
C842        C843   1.405       .  A
C842       Br858   1.924       .  S
C843        C844   1.403       .  A
C843        H847   1.080       .  S
C844        C848   1.501       .  S
C844        C845   1.405       .  A
C845        C846   1.394       .  A
C845       Br857   1.923       .  S
C846        H849   1.072       .  S
C848        C850   1.397       .  A
C848        C854   1.414       .  A
C850        C851   1.380       .  A
C850        H855   1.080       .  S
C851        C852   1.439       .  A
C851       Br859   1.941       .  S
C852        C853   1.418       .  A
C853        C854   1.417       .  A
C853        H856   1.083       .  S
C854       Br860   1.917       .  S
C861        C862   1.440       .  A
C861        C866   1.422       .  A
C862        C863   1.398       .  A
C862       Br878   1.926       .  S
C863        C864   1.391       .  A
C863        H867   1.085       .  S
C864        C868   1.482       .  S
C864        C865   1.401       .  A
C865        C866   1.404       .  A
C865       Br877   1.916       .  S
C866        H869   1.083       .  S
C868        C870   1.401       .  A
C868        C874   1.407       .  A
C870        C871   1.403       .  A
C870        H875   1.084       .  S
C871        C872   1.418       .  A
C871       Br879   1.922       .  S
C872        C873   1.406       .  A
C873        C874   1.401       .  A
C873        H876   1.083       .  S
C874       Br880   1.918       .  S
C881        C882   1.451       .  A
C881        C886   1.424       .  A
C882        C883   1.406       .  A
C882       Br898   1.929       .  S
C883        C884   1.390       .  A
C883        H887   1.085       .  S
C884        C888   1.481       .  S
C884        C885   1.393       .  A
C885        C886   1.398       .  A
C885       Br897   1.919       .  S
C886        H889   1.078       .  S
C888        C890   1.403       .  A
C888        C894   1.404       .  A
C890        C891   1.403       .  A
C890        H895   1.083       .  S
C891        C892   1.416       .  A
C891       Br899   1.921       .  S
C892        C893   1.407       .  A
C893        C894   1.399       .  A
C893        H896   1.083       .  S
C894       Br900   1.917       .  S
C901        C902   1.437       .  A
C901        C906   1.427   1_545  A
C902        C903   1.392   1_545  A
C902       Br918   1.927       .  S
C903        C904   1.388       .  A
C903        H907   1.079       .  S
C904        C908   1.492       .  S
C904        C905   1.404       .  A
C905        C906   1.414       .  A
C905       Br917   1.915       .  S
C906        H909   1.078       .  S
C908        C910   1.400       .  A
C908        C914   1.403       .  A
C910        C911   1.412       .  A
C910        H915   1.083       .  S
C911        C912   1.432       .  A
C911       Br919   1.917       .  S
C912        C913   1.427       .  A
C913        C914   1.405       .  A
C913        H916   1.079       .  S
C914       Br920   1.914       .  S
C921        C922   1.445       .  A
C921        C926   1.418       .  A
C922        C923   1.393       .  A
C922       Br938   1.939       .  S
C923        C924   1.390       .  A
C923        H927   1.085       .  S
C924        C928   1.476       .  S
C924        C925   1.400       .  A
C925        C926   1.402       .  A
C925       Br937   1.916       .  S
C926        H929   1.083       .  S
C928        C930   1.400       .  A
C928        C934   1.406       .  A
C930        C931   1.401   1_545  A
C930        H935   1.084   1_545  S
C931        C932   1.418   1_565  A
C931       Br939   1.922       .  S
C932        C933   1.405       .  A
C933        C934   1.396       .  A
C933        H936   1.083       .  S
C934       Br940   1.920       .  S
C941        C942   1.433       .  A
C941        C946   1.419       .  A
C942        C943   1.383       .  A
C942       Br958   1.913       .  S
C943        C944   1.380       .  A
C943        H947   1.074       .  S
C944        C948   1.496       .  S
C944        C945   1.405       .  A
C945        C946   1.423       .  A
C945       Br957   1.912       .  S
C946        H949   1.080       .  S
C948        C950   1.407       .  A
C948        C954   1.407       .  A
C950        C951   1.409       .  A
C950        H955   1.083       .  S
C951        C952   1.426       .  A
C951       Br959   1.923   1_565  S
C952        C953   1.420       .  A
C953        C954   1.410       .  A
C953        H956   1.078       .  S
C954       Br960   1.914       .  S
C961        C962   1.434       .  A
C961        C966   1.410   1_545  A
C962        C963   1.404       .  A
C962       Br978   1.922       .  S
C963        C964   1.400       .  A
C963        H967   1.083       .  S
C964        C968   1.488       .  S
C964        C965   1.405       .  A
C965        C966   1.383   1_545  A
C965       Br977   1.919   1_545  S
C966        H969   1.068       .  S
C968        C970   1.394       .  A
C968        C974   1.406       .  A
C970        C971   1.395       .  A
C970        H975   1.084   1_545  S
C971        C972   1.435       .  A
C971       Br979   1.926   1_545  S
C972        C973   1.418       .  A
C973        C974   1.400       .  A
C973        H976   1.073       .  S
C974       Br980   1.918       .  S
C981        C982   1.440       .  A
C981        C986   1.416       .  A
C982        C983   1.394       .  A
C982       Br998   1.933   1_545  S
C983        C984   1.391       .  A
C983        H987   1.085       .  S
C984        C988   1.483       .  S
C984        C985   1.406       .  A
C985        C986   1.406       .  A
C985       Br997   1.917       .  S
C986        H989   1.082       .  S
C988        C990   1.404       .  A
C988        C994   1.407       .  A
C990        C991   1.401       .  A
C990        H995   1.084       .  S
C991        C992   1.416       .  A
C991       Br999   1.922       .  S
C992        C993   1.408       .  A
C993        C994   1.400       .  A
C993        H996   1.083   1_545  S
C994      Br1000   1.918   1_545  S
C1001      C1002   1.433       .  A
C1001      C1006   1.423       .  A
C1002      C1003   1.389       .  A
C1002     Br1018   1.913       .  S
C1003      C1004   1.389       .  A
C1003      H1007   1.083       .  S
C1004      C1008   1.476       .  S
C1004      C1005   1.400       .  A
C1005      C1006   1.405       .  A
C1005     Br1017   1.916       .  S
C1006      H1009   1.073       .  S
C1008      C1010   1.393   1_545  A
C1008      C1014   1.396   1_545  A
C1010      C1011   1.400       .  A
C1010      H1015   1.085       .  S
C1011      C1012   1.436       .  A
C1011     Br1019   1.911       .  S
C1012      C1013   1.422       .  A
C1013      C1014   1.395       .  A
C1013      H1016   1.071       .  S
C1014     Br1020   1.915   1_565  S
C1021      C1022   1.427       .  A
C1021      C1026   1.415       .  A
C1022      C1023   1.408       .  A
C1022     Br1038   1.909       .  S
C1023      C1024   1.403       .  A
C1023      H1027   1.082       .  S
C1024      C1028   1.513       .  S
C1024      C1025   1.417       .  A
C1025      C1026   1.403       .  A
C1025     Br1037   1.919       .  S
C1026      H1029   1.080       .  S
C1028      C1030   1.398       .  A
C1028      C1034   1.411       .  A
C1030      C1031   1.409       .  A
C1030      H1035   1.082       .  S
C1031      C1032   1.439       .  A
C1031     Br1039   1.922       .  S
C1032      C1033   1.418       .  A
C1033      C1034   1.400       .  A
C1033      H1036   1.063       .  S
C1034     Br1040   1.920       .  S
C1041      C1042   1.431       .  A
C1041      C1046   1.430       .  A
C1042      C1043   1.379       .  A
C1042     Br1058   1.897       .  S
C1043      C1044   1.385       .  A
C1043      H1047   1.082       .  S
C1044      C1048   1.499       .  S
C1044      C1045   1.408       .  A
C1045      C1046   1.422       .  A
C1045     Br1057   1.914       .  S
C1046      H1049   1.078       .  S
C1048      C1050   1.397       .  A
C1048      C1054   1.409       .  A
C1050      C1051   1.403       .  A
C1050      H1055   1.085       .  S
C1051      C1052   1.443       .  A
C1051     Br1059   1.920       .  S
C1052      C1053   1.418       .  A
C1053      C1054   1.413       .  A
C1053      H1056   1.074       .  S
C1054     Br1060   1.915       .  S
C1061      C1062   1.434       .  A
C1061      C1066   1.420       .  A
C1062      C1063   1.404       .  A
C1062     Br1078   1.920       .  S
C1063      C1064   1.395       .  A
C1063      H1067   1.084       .  S
C1064      C1068   1.479       .  S
C1064      C1065   1.396       .  A
C1065      C1066   1.396       .  A
C1065     Br1077   1.920       .  S
C1066      H1069   1.067       .  S
C1068      C1070   1.399       .  A
C1068      C1074   1.405       .  A
C1070      C1071   1.400       .  A
C1070      H1075   1.084       .  S
C1071      C1072   1.419       .  A
C1071     Br1079   1.922       .  S
C1072      C1073   1.409       .  A
C1073      C1074   1.401       .  A
C1073      H1076   1.083       .  S
C1074     Br1080   1.918       .  S
