geometry optimzed in LAMMPS
_audit_creation_date              2020-11-30 
_audit_creation_method            'lammps2cif' 
_symmetry_space_group_name_H-M    'P1' 
_symmetry_Int_Tables_number       1 
_symmetry_cell_setting            triclinic 
loop_ 
_symmetry_equiv_pos_as_xyz 
  x,y,z 
_cell_length_a                    37.03713432 
_cell_length_b                    40.334797384790896 
_cell_length_c                    36.869554878715604 
_cell_angle_alpha                 89.9323048489371 
_cell_angle_beta                  89.00258000262106 
_cell_angle_gamma                 90.86407933893024 
loop_ 
_atom_site_label 
_atom_site_type_symbol 
_atom_site_fract_x 
_atom_site_fract_y 
_atom_site_fract_z 
_atom_site_charge 
C1          C  0.61383688  0.63211052  0.58517156     0.86500
C2          C  0.65400061  0.62219117  0.58645351    -0.53700
C3          C  0.65944517  0.59085053  0.59890675     0.09400
C4          C  0.62436846  0.57199036  0.60932417     0.20400
C5          C  0.59605778  0.60468985  0.56264243    -0.54500
C6          C  0.60089554  0.57304324  0.57490601     0.09500
C7          C  0.60045071  0.62628413  0.62431307    -0.54000
C8          C  0.60507632  0.59484365  0.63684131     0.10100
H9          H  0.67695044  0.63800196  0.57970824     0.14600
H10         H  0.63008851  0.54711736  0.62003838     0.00400
H11         H  0.57996040  0.61034262  0.53914577     0.14900
H12         H  0.58895172  0.64578354  0.64095625     0.14700
C13         C  0.94607009  0.13710377  0.59364064     0.86500
C14         C  0.95429621  0.13341588  0.63418050    -0.53700
C15         C  0.95222138  0.10164981  0.64698668     0.09400
C16         C  0.94210815  0.07584951  0.61777582     0.20400
C17         C  0.97145043  0.11310418  0.57388179    -0.54500
C18         C  0.97013997  0.08135294  0.58672441     0.09500
C19         C  0.90842333  0.12027814  0.59013915    -0.54000
C20         C  0.90628774  0.08842884  0.60261154     0.10100
H21         H  0.96107417  0.15435254  0.65141669     0.14600
H22         H  0.94047515  0.04990563  0.62788207     0.00400
H23         H  0.98866225  0.12064013  0.55109307     0.14900
H24         H  0.88469976  0.13145846  0.57908940     0.14700
C25         C  0.13063974  0.64020876  0.95243462     0.86500
C26         C  0.12026816  0.63404516  0.91270664    -0.53700
C27         C  0.12205781  0.60173141  0.90182643     0.09400
C28         C  0.13477674  0.57813583  0.93177723     0.20400
C29         C  0.10695955  0.61592908  0.97506823    -0.54500
C30         C  0.10822341  0.58366915  0.96385582     0.09500
C31         C  0.16884252  0.62558481  0.95450622    -0.54000
C32         C  0.17096145  0.59333564  0.94392175     0.10100
H33         H  0.11138273  0.65363446  0.89484594     0.14600
H34         H  0.13676538  0.55179936  0.92366505     0.00400
H35         H  0.08979902  0.62385758  0.99752250     0.14900
H36         H  0.19310621  0.63874731  0.96226298     0.14700
C37         C  0.44303620  0.33156004  0.45256263     0.86500
C38         C  0.45720348  0.33604059  0.41316542    -0.53700
C39         C  0.45031921  0.36636483  0.39822901     0.09400
C40         C  0.43126713  0.39023148  0.42472028     0.20400
C41         C  0.46196218  0.36060785  0.47227024    -0.54500
C42         C  0.45595087  0.39111643  0.45771835     0.09500
C43         C  0.40307252  0.34119035  0.45213996    -0.54000
C44         C  0.39665339  0.37179823  0.43786481     0.10100
H45         H  0.47289087  0.31736612  0.39914132     0.14600
H46         H  0.42665836  0.41512425  0.41306824     0.00400
H47         H  0.48148258  0.35778701  0.49354229     0.14900
H48         H  0.38166505  0.32545201  0.46351565     0.14700
C49         C  0.61948449  0.85206215  0.09363056     0.86500
C50         C  0.60999524  0.85582369  0.13440939    -0.47300
C51         C  0.61450913  0.88714894  0.14743014     0.09400
C52         C  0.62789357  0.91244592  0.11886387     0.20400
C53         C  0.59518714  0.87799169  0.07609449    -0.54500
C54         C  0.60012526  0.90964728  0.08849997     0.09500
C55         C  0.65819595  0.86610283  0.08976289    -0.54000
C56         C  0.66267170  0.89790660  0.10210479     0.10100
H57         H  0.59779879  0.83672821  0.15148195     0.14600
H58         H  0.63094542  0.93773557  0.13019739     0.00400
H59         H  0.57577710  0.87184408  0.05531211     0.14900
H60         H  0.68008420  0.85212114  0.07756016     0.14700
C61         C  0.94078989  0.34403958  0.09734090     0.86500
C62         C  0.90323085  0.35947229  0.09728457    -0.53700
C63         C  0.90147344  0.39061198  0.11165081     0.09400
C64         C  0.93846835  0.40422618  0.12400804     0.20400
C65         C  0.96472025  0.36973869  0.07650931    -0.54500
C66         C  0.96387625  0.40101480  0.09067801     0.09500
C67         C  0.95396553  0.34692955  0.13651077    -0.54000
C68         C  0.95201225  0.37799344  0.15087934     0.10100
H69         H  0.87966409  0.34645911  0.08694239     0.14600
H70         H  0.93756414  0.42978288  0.13513771     0.00400
H71         H  0.98153820  0.36475993  0.05297347     0.14900
H72         H  0.96436454  0.32601203  0.15140629     0.14700
C73         C  0.45495594  0.14963270  0.95472237     0.86500
C74         C  0.41561125  0.13942149  0.96337821    -0.53700
C75         C  0.40618925  0.10829484  0.95205114     0.09400
C76         C  0.43756139  0.08945734  0.93399089     0.20400
C77         C  0.47731105  0.12203904  0.97221835    -0.54500
C78         C  0.46788794  0.09067806  0.96192454     0.09500
C79         C  0.46072102  0.14333821  0.91393742    -0.54000
C80         C  0.45131327  0.11213085  0.90286541     0.10100
H81         H  0.39737870  0.15522844  0.97853672     0.14600
H82         H  0.42987132  0.06401181  0.92540512     0.00400
H83         H  0.49924902  0.12581813  0.99079097     0.14900
H84         H  0.47227068  0.16181482  0.89548730     0.14700
C85         C  0.11490802  0.84190581  0.44157221     0.86500
C86         C  0.15552021  0.85158717  0.44220109    -0.53700
C87         C  0.16330118  0.88306224  0.43094293     0.09400
C88         C  0.12983327  0.90310312  0.42151239     0.20400
C89         C  0.09747483  0.86845523  0.46583948    -0.54500
C90         C  0.10525825  0.90045015  0.45564114     0.09500
C91         C  0.10339424  0.85031035  0.40278476    -0.54000
C92         C  0.11072430  0.88229595  0.39232710     0.10100
H93         H  0.17685026  0.83646407  0.45259591     0.14600
H94         H  0.13633426  0.92896473  0.41297969     0.00400
H95         H  0.08023304  0.86240099  0.48911230     0.14900
H96         H  0.09195266  0.83192992  0.38463007     0.14700
Zr97       Zr  0.97498596  0.02516137  0.99934780     2.17500
O98         O  0.92011668  0.03330157  0.96499668    -0.51300
O99         O  0.96669122  0.08274586  0.01899317    -0.74500
O100        O  0.91986715  0.00889346  0.03430611    -0.81300
O101        O  0.03335981  0.03730633  0.91240019    -0.83100
O102        O  0.93634694  0.97915845  0.08350296    -0.78700
O103        O  0.97539119  0.03843883  0.93390488    -0.90300
O104        O  0.01663307  0.09883949  0.04923419    -0.76300
O105        O  0.99693615  0.02822147  0.05979244    -0.85800
O106        O  0.03379112  0.05031640  0.99526149    -0.85500
O107        O  0.97748727  0.96867521  0.02071612    -0.72200
O108        O  0.01143141  0.98996677  0.96163033    -0.84400
Zr109      Zr  0.09475514  0.96112828  0.04106220     2.26400
Zr110      Zr  0.00080868  0.97234493  0.08122114     2.06300
Zr111      Zr  0.07070670  0.01437863  0.95911192     2.10000
Zr112      Zr  0.05568556  0.05262386  0.05549620     1.78800
O113        O  0.08833156  0.98343534  0.90509014    -0.93200
O114        O  0.03825907  0.06942651  0.11679414    -0.41000
O115        O  0.09223039  0.01710667  0.01946792    -0.77600
O116        O  0.05959081  0.99765205  0.07901603    -0.96300
O117        O  0.03619521  0.93593989  0.04422106    -0.89600
O118        O  0.07400978  0.95821582  0.98007317    -0.92400
C119        C  0.98548215  0.10437140  0.03639215     1.01300
C120        C  0.99954712  0.04229541  0.90851337     1.14300
C121        C  0.91246721  0.99228621  0.06352060     1.05000
O122        O  0.98927439  0.00330591  0.13679620    -0.94600
O123        O  0.03767425  0.94741051  0.12770679    -0.90300
O124        O  0.09530934  0.94576258  0.10549378    -0.83500
C125        C  0.07150256  0.94186739  0.13099627     1.11700
O126        O  0.96105566  0.91946039  0.94959678    -0.96600
Zr127      Zr  0.01468842  0.93443723  0.98358679     1.88900
O128        O  0.10117527  0.90330147  0.02208133    -0.73200
O129        O  0.96955043  0.92261269  0.10365064    -0.52500
O130        O  0.97775407  0.88954070  0.00939265    -0.97100
O131        O  0.02474310  0.92299478  0.91931526    -0.54400
O132        O  0.05431440  0.88813943  0.98651083    -0.73700
C133        C  0.08362198  0.88217614  0.00286662     0.98600
O134        O  0.15496972  0.94626893  0.06082778    -0.62500
O135        O  0.09950406  0.06524914  0.93634151    -0.57300
O136        O  0.14949876  0.98777989  0.01572213    -0.94000
O137        O  0.13591466  0.01581503  0.96430391    -0.92500
O138        O  0.09475180  0.09632828  0.03045787    -0.92800
O139        O  0.10893523  0.06444284  0.09140380    -0.91600
C140        C  0.15829264  0.00551815  0.98781819     1.17500
H141        H  0.03287508  0.07212871  0.98439598     0.33400
H142        H  0.06937544  0.00044097  0.10290481     0.44300
H143        H  0.09013365  0.94537170  0.96493022     0.37800
H144        H  0.95400475  0.95798695  0.02068840     0.34300
H145        H  0.04803405  0.09228359  0.11930017     0.26100
H146        H  0.98760729  0.90480821  0.10192968     0.32000
H147        H  0.98809325  0.88528480  0.03350377     0.37900
H148        H  0.11183116  0.08468869  0.01410096     0.32400
H149        H  0.10088839  0.06249665  0.90967343     0.31200
H150        H  0.11321028  0.97602681  0.90965323     0.32900
H151        H  0.05082728  0.91831963  0.91684612     0.31900
H152        H  0.12199136  0.04321168  0.09206351     0.35900
H153        H  0.16048576  0.96137682  0.08123089     0.28600
H154        H  0.90645803  0.05038086  0.97844967     0.32900
H155        H  0.94350957  0.93703757  0.95540574     0.35700
H156        H  0.08158458  0.08289183  0.94035018     0.28300
H157        H  0.15228583  0.92403287  0.07205206     0.41200
H158        H  0.96557483  0.99495492  0.14602865     0.31200
H159        H  0.01175553  0.07221774  0.11617039     0.38900
H160        H  0.02184884  0.94461612  0.90702982     0.30700
H161        H  0.96614827  0.92641517  0.13001744     0.30800
H162        H  0.90560738  0.01259011  0.96765738     0.31000
Zr163      Zr  0.55542075  0.03741288  0.56824546     2.17500
O164        O  0.58759221  0.08584187  0.59145224    -0.51300
O165        O  0.53420372  0.04203511  0.63101033    -0.74500
O166        O  0.52645746  0.08981201  0.55272393    -0.81300
O167        O  0.64134666  0.98483627  0.56447314    -0.83100
O168        O  0.47262979  0.07840471  0.52647293    -0.78700
O169        O  0.62164081  0.03660569  0.57652747    -0.90300
O170        O  0.49662096  0.99896233  0.64548662    -0.76300
O171        O  0.49399304  0.01860753  0.57104979    -0.85800
O172        O  0.55576023  0.98218568  0.59177768    -0.85500
O173        O  0.53449327  0.04023568  0.50670392    -0.72200
O174        O  0.59075984  0.00601109  0.52588829    -0.84400
Zr175      Zr  0.50805087  0.93350243  0.48954789     2.26400
Zr176      Zr  0.47314302  0.02010558  0.50987126     2.06300
Zr177      Zr  0.59004235  0.95067972  0.54869646     2.10000
Zr178      Zr  0.49452777  0.96313086  0.59312956     1.78800
O179        O  0.64432469  0.92780300  0.52083887    -0.93200
O180        O  0.43074435  0.97245199  0.60605915    -0.41000
O181        O  0.52900770  0.93105637  0.55092623    -0.77600
O182        O  0.47204054  0.96428378  0.53278332    -0.96300
O183        O  0.50778972  0.98880915  0.46669936    -0.89600
O184        O  0.56974469  0.95189168  0.48730168    -0.92400
C185        C  0.51282353  0.02630082  0.65295719     1.01300
C186        C  0.64704054  0.01513515  0.57348710     1.14300
C187        C  0.49642822  0.09867102  0.53888073     1.05000
O188        O  0.41487422  0.03274143  0.53769708    -0.94600
O189        O  0.42473117  0.98960594  0.48060335    -0.90300
O190        O  0.44443739  0.93716429  0.47215563    -0.83500
C191        C  0.41997661  0.95946318  0.47047082     1.11700
O192        O  0.60804904  0.05567171  0.45390520    -0.96600
Zr193      Zr  0.56909031  0.00748525  0.46549890     1.88900
O194        O  0.52634723  0.92998754  0.42530659    -0.73200
O195        O  0.46130596  0.05042569  0.45422363    -0.52500
O196        O  0.54506331  0.04690019  0.42241151    -0.97100
O197        O  0.63194924  0.99821155  0.44822116    -0.54400
O198        O  0.56246232  0.97418051  0.41197353    -0.73700
C199        C  0.54546435  0.94775338  0.40297592     0.98600
O200        O  0.48117892  0.88003743  0.47322482    -0.62500
O201        O  0.60808641  0.93129036  0.60821622    -0.57300
O202        O  0.53372261  0.88061336  0.50860720    -0.94000
O203        O  0.58372273  0.89134579  0.54173014    -0.92500
O204        O  0.51468960  0.92766724  0.64213421    -0.92800
O205        O  0.46171512  0.91108417  0.60328660    -0.91600
C206        C  0.56096787  0.87140074  0.52716987     1.17500
H207        H  0.56630992  0.98176508  0.61556049     0.33400
H208        H  0.44765360  0.95557879  0.53486750     0.44300
H209        H  0.58435578  0.93778111  0.47198141     0.37800
H210        H  0.53584318  0.06225924  0.49657445     0.34300
H211        H  0.42907234  0.97547634  0.63267197     0.26100
H212        H  0.43610434  0.05796029  0.45708303     0.32000
H213        H  0.52264840  0.03625268  0.41356376     0.37900
H214        H  0.53226097  0.94131188  0.65574959     0.32400
H215        H  0.58779158  0.91696580  0.61687529     0.31200
H216        H  0.65825364  0.91905797  0.54134660     0.32900
H217        H  0.63213816  0.97590185  0.43707617     0.31900
H218        H  0.46214181  0.89994810  0.57936202     0.35900
H219        H  0.45942525  0.87724483  0.48900455     0.28600
H220        H  0.56945438  0.09944445  0.60432950     0.32900
H221        H  0.59997753  0.07247395  0.47171849     0.35700
H222        H  0.62822635  0.91597509  0.60337070     0.28300
H223        H  0.47186155  0.88283260  0.44840767     0.41200
H224        H  0.40326895  0.04775195  0.52027462     0.31200
H225        H  0.42608094  0.99469144  0.59597712     0.38900
H226        H  0.64452862  0.99543848  0.47148757     0.30700
H227        H  0.47615608  0.07098743  0.45566361     0.30800
H228        H  0.59473947  0.09899994  0.56976201     0.31000
Zr229      Zr  0.56217611  0.44956122  0.06511704     2.17500
O230        O  0.59074602  0.39674794  0.07790181    -0.51300
O231        O  0.53921367  0.44288612  0.12798050    -0.74500
O232        O  0.62544262  0.45529529  0.08430978    -0.81300
O233        O  0.48461382  0.40681958  0.01349957    -0.83100
O234        O  0.64574180  0.50763389  0.07399689    -0.78700
O235        O  0.53662870  0.39693561  0.04346661    -0.90300
O236        O  0.50224888  0.48552230  0.14091060    -0.76300
O237        O  0.56397465  0.50504822  0.08708465    -0.85800
O238        O  0.50087862  0.46717295  0.06774078    -0.85500
O239        O  0.59811596  0.48035641  0.02102149    -0.72200
O240        O  0.54000297  0.44714179  0.00432310    -0.84400
Zr241      Zr  0.51643996  0.55306116  0.98562260     2.26400
Zr242      Zr  0.59853014  0.53626572  0.04287415     2.06300
Zr243      Zr  0.47928657  0.46603707  0.00684414     2.10000
Zr244      Zr  0.50295626  0.52269968  0.08940492     1.78800
O245        O  0.46077972  0.43774924  0.95172022    -0.93200
O246        O  0.52966082  0.55448805  0.13866257    -0.41000
O247        O  0.48033247  0.52177510  0.02895151    -0.77600
O248        O  0.53768551  0.55561010  0.04710319    -0.96300
O249        O  0.57712809  0.53455525  0.98207090    -0.89600
O250        O  0.51371538  0.49769086  0.96337298    -0.92400
C251        C  0.51732559  0.45833948  0.14942655     1.01300
C252        C  0.50825007  0.38742076  0.02644302     1.14300
C253        C  0.65033927  0.47798634  0.08518003     1.05000
O254        O  0.62063994  0.56812743  0.09420435    -0.94600
O255        O  0.59848563  0.59507952  0.02989503    -0.90300
O256        O  0.54893347  0.60545116  0.99668271    -0.83500
C257        C  0.57760104  0.61482599  0.01329135     1.11700
O258        O  0.61467687  0.43248457  0.95160255    -0.96600
Zr259      Zr  0.57420066  0.47881306  0.96105302     1.88900
O260        O  0.53296826  0.55567463  0.92069167    -0.73200
O261        O  0.65214535  0.54551414  0.00481414    -0.52500
O262        O  0.63315166  0.49494531  0.93597611    -0.97100
O263        O  0.54713529  0.43662072  0.92226033    -0.54400
O264        O  0.56410065  0.50938138  0.90631916    -0.73700
C265        C  0.54906825  0.53653828  0.89782359     0.98600
O266        O  0.48133790  0.60238349  0.97288911    -0.62500
O267        O  0.42320467  0.44968593  0.03820324    -0.57300
O268        O  0.45228687  0.55040421  0.97185542    -0.94000
O269        O  0.43195744  0.49720601  0.97893175    -0.92500
O270        O  0.43839893  0.51533361  0.10100928    -0.92800
O271        O  0.47144538  0.57380698  0.10379161    -0.91600
C272        C  0.42775476  0.52761558  0.97009134     1.17500
H273        H  0.48624696  0.45272340  0.08298743     0.33400
H274        H  0.53708467  0.57794649  0.05639693     0.44300
H275        H  0.50222524  0.49666747  0.94007663     0.37800
H276        H  0.62230859  0.47188894  0.01908884     0.34300
H277        H  0.54066761  0.53793208  0.15475796     0.26100
H278        H  0.66773796  0.56056025  0.01908652     0.32000
H279        H  0.63256909  0.51942504  0.93407709     0.37900
H280        H  0.43476232  0.49115000  0.10426493     0.32400
H281        H  0.41369748  0.43078417  0.02395434     0.31200
H282        H  0.43701520  0.42747957  0.95792787     0.32900
H283        H  0.56422445  0.43429634  0.90151769     0.31900
H284        H  0.48790889  0.59205566  0.09579472     0.35900
H285        H  0.48128652  0.61567195  0.99546425     0.28600
H286        H  0.59994294  0.39849532  0.10289531     0.32900
H287        H  0.60618762  0.41553820  0.96937706     0.35700
H288        H  0.43033024  0.43957813  0.06140520     0.28300
H289        H  0.49581957  0.61555382  0.95504894     0.41200
H290        H  0.64281269  0.57955516  0.08499993     0.31200
H291        H  0.55053557  0.56634620  0.12727334     0.38900
H292        H  0.52571904  0.44711988  0.91174267     0.30700
H293        H  0.66480995  0.52407003  0.00467824     0.30800
H294        H  0.61255630  0.39607716  0.06199053     0.31000
Zr295      Zr  0.01028805  0.54555945  0.56614420     2.17500
O296        O  0.99189990  0.60055194  0.58616904    -0.51300
O297        O  0.03106440  0.55118474  0.62870559    -0.74500
O298        O  0.94561610  0.54710783  0.58267367    -0.81300
O299        O  0.08616343  0.58308038  0.50592455    -0.83100
O300        O  0.92247381  0.49465915  0.58091550    -0.78700
O301        O  0.03702036  0.59625083  0.54057353    -0.90300
O302        O  0.05321499  0.50201239  0.64707297    -0.76300
O303        O  0.00638160  0.49187045  0.59294556    -0.85800
O304        O  0.07082137  0.52568530  0.56710078    -0.85500
O305        O  0.97187272  0.51397250  0.52615669    -0.72200
O306        O  0.03140464  0.54392033  0.50403396    -0.84400
Zr307      Zr  0.04922444  0.43669987  0.49215044     2.26400
Zr308      Zr  0.96887909  0.46001921  0.55344019     2.06300
Zr309      Zr  0.09134608  0.52299539  0.50508673     2.10000
Zr310      Zr  0.06645108  0.47143114  0.59252881     1.78800
O311        O  0.11568178  0.54573978  0.44837468    -0.93200
O312        O  0.04994045  0.42993128  0.63819898    -0.41000
O313        O  0.08780101  0.46873978  0.53103889    -0.77600
O314        O  0.02888355  0.43807989  0.55476139    -0.96300
O315        O  0.98925114  0.45737145  0.49129255    -0.89600
O316        O  0.05430283  0.49057294  0.46538242    -0.92400
C317        C  0.04335793  0.53174209  0.65305375     1.01300
C318        C  0.06405260  0.60398228  0.51982035     1.14300
C319        C  0.91948407  0.52590730  0.58672037     1.05000
O320        O  0.95323657  0.43555493  0.61220660    -0.94600
O321        O  0.96568447  0.40063070  0.54487246    -0.90300
O322        O  0.01334194  0.38697536  0.50847170    -0.83500
C323        C  0.98509521  0.37949980  0.52775667     1.11700
O324        O  0.95783073  0.56014488  0.45634258    -0.96600
Zr325      Zr  0.99441315  0.51122308  0.46514945     1.88900
O326        O  0.03054340  0.43020392  0.42897690    -0.73200
O327        O  0.91163580  0.44554170  0.52554570    -0.52500
O328        O  0.93270574  0.49843628  0.44727862    -0.97100
O329        O  0.01820895  0.54852844  0.41818902    -0.54400
O330        O  0.99839803  0.47513290  0.41331083    -0.73700
C331        C  0.01229277  0.44698743  0.40619293     0.98600
O332        O  0.07894187  0.38438129  0.47960867    -0.62500
O333        O  0.14545533  0.54202106  0.53595150    -0.57300
O334        O  0.11421113  0.43417446  0.47724793    -0.94000
O335        O  0.13797875  0.48598739  0.48210720    -0.92500
O336        O  0.12588628  0.49111698  0.61105347    -0.92800
O337        O  0.10758912  0.42536207  0.59919104    -0.91600
C338        C  0.14099054  0.45490096  0.47495796     1.17500
H339        H  0.08609469  0.54022237  0.58110256     0.33400
H340        H  0.02898660  0.41627399  0.56556869     0.44300
H341        H  0.06500922  0.48970642  0.44130260     0.37800
H342        H  0.94818406  0.52316820  0.52357572     0.34300
H343        H  0.06410073  0.43610775  0.65977994     0.26100
H344        H  0.89411616  0.44317236  0.54601378     0.32000
H345        H  0.93228097  0.47434706  0.44212040     0.37900
H346        H  0.12135260  0.50815069  0.62983142     0.32400
H347        H  0.15079204  0.52407990  0.55327837     0.31200
H348        H  0.13648412  0.55981155  0.45559454     0.32900
H349        H  0.00931532  0.53924671  0.39509910     0.31900
H350        H  0.11409439  0.41887544  0.57405013     0.35900
H351        H  0.07765576  0.37121989  0.50230474     0.28600
H352        H  0.97964932  0.59729351  0.61002031     0.32900
H353        H  0.95999262  0.57275020  0.47925596     0.35700
H354        H  0.16502514  0.54076935  0.51738928     0.28300
H355        H  0.06360621  0.37233563  0.46214543     0.41200
H356        H  0.95454117  0.45415192  0.62967573     0.31200
H357        H  0.02466008  0.43491069  0.64512045     0.38900
H358        H  0.04454491  0.54473245  0.41737705     0.30700
H359        H  0.90442335  0.46598280  0.51285340     0.30800
H360        H  0.97260158  0.60730186  0.56958762     0.31000
C361        C  0.32430778  0.95944683  0.43228950    -0.22500
C362        C  0.31183376  0.92775829  0.44254388     0.09500
C363        C  0.33567938  0.90591548  0.45962994     0.09900
C364        C  0.37102736  0.91668346  0.46711841    -0.17400
C365        C  0.38323328  0.94899390  0.45846701    -0.27800
C366        C  0.35946925  0.97055978  0.44036364     0.18200
C367        C  0.27313522  0.91866264  0.43731522     0.12200
C368        C  0.32352613  0.87159734  0.47115540    -0.12100
H369        H  0.38884035  0.90004613  0.48107440     0.12500
C370        C  0.37074757  0.00521214  0.42918779    -0.23000
H371        H  0.30598008  0.97591849  0.41877215     0.08100
C372        C  0.24549566  0.93271995  0.45905469     0.04500
C373        C  0.20954579  0.92189676  0.45494386    -0.20200
C374        C  0.20078181  0.89655469  0.43054653    -0.12500
C375        C  0.22834012  0.88262561  0.40854430     0.13200
C376        C  0.26408210  0.89434194  0.41172914    -0.22900
C377        C  0.25410559  0.95804062  0.48776380    -0.06000
H378        H  0.18838486  0.93215139  0.47204268     0.14700
C379        C  0.22030376  0.85525137  0.38189128    -0.16200
H380        H  0.28530844  0.88376947  0.39498633     0.09000
H381        H  0.34970684  0.01738555  0.41294727     0.06900
H382        H  0.39588657  0.00445837  0.41237969     0.08100
H383        H  0.37514120  0.02079405  0.45353010     0.07100
H384        H  0.31607614  0.85675225  0.44703170     0.02000
H385        H  0.29981037  0.87320754  0.48987629     0.02500
H386        H  0.34514442  0.85824405  0.48539234     0.06000
H387        H  0.22958047  0.96531055  0.50339848     0.05000
H388        H  0.26595170  0.98072998  0.47502950    -0.00800
H389        H  0.27362861  0.94763038  0.50709277     0.00700
H390        H  0.19953683  0.86328049  0.36260836     0.04400
H391        H  0.21042731  0.83270113  0.39638903     0.06300
H392        H  0.24475114  0.84833983  0.36593061     0.07200
C393        C  0.07277406  0.68244992  0.46360264    -0.22500
C394        C  0.07983319  0.70624201  0.49026581     0.09500
C395        C  0.07993226  0.69674813  0.52714753     0.09900
C396        C  0.07441321  0.66316990  0.53640858    -0.17400
C397        C  0.06886423  0.63913747  0.50947691    -0.27800
C398        C  0.06695766  0.64904037  0.47278735     0.18200
C399        C  0.08885811  0.74055275  0.47842211     0.12200
C400        C  0.08586145  0.72205369  0.55651896    -0.12100
H401        H  0.07494560  0.65556993  0.56460485     0.12500
C402        C  0.05757818  0.62458714  0.44341243    -0.23000
H403        H  0.07219223  0.69007820  0.43541740     0.08100
C404        C  0.12469097  0.75001525  0.47005374     0.04500
C405        C  0.13221198  0.78216334  0.45728987    -0.20200
C406        C  0.10486044  0.80593754  0.45289431    -0.12500
C407        C  0.06832023  0.79502932  0.45887715     0.13200
C408        C  0.06109969  0.76288982  0.47235649    -0.22900
C409        C  0.15509251  0.72584408  0.47396201    -0.06000
H410        H  0.15980990  0.78756849  0.44965779     0.14700
C411        C  0.03575156  0.81570419  0.45084568    -0.16200
H412        H  0.03337961  0.75486652  0.47739387     0.09000
H413        H  0.07867548  0.60546506  0.44109687     0.06900
H414        H  0.05549026  0.63683684  0.41655530     0.08100
H415        H  0.03112752  0.61247497  0.44995520     0.07100
H416        H  0.06452031  0.74105336  0.55542040     0.02000
H417        H  0.11265980  0.73435043  0.55264579     0.02500
H418        H  0.08486996  0.71055558  0.58391532     0.06000
H419        H  0.18167872  0.73713086  0.46627530     0.05000
H420        H  0.15041854  0.70406136  0.45617885    -0.00800
H421        H  0.15650366  0.71736176  0.50253943     0.00700
H422        H  0.01785241  0.80185032  0.43212342     0.04400
H423        H  0.04213194  0.83970558  0.43768938     0.06300
H424        H  0.02051460  0.82054882  0.47644548     0.07200
C425        C  0.09853806  0.95019707  0.22911340    -0.22500
C426        C  0.09842786  0.91702454  0.24044979     0.09500
C427        C  0.09297729  0.89159434  0.21460287     0.09900
C428        C  0.08538774  0.90005467  0.17846101    -0.17400
C429        C  0.08393068  0.93333655  0.16764375    -0.27800
C430        C  0.09173846  0.95862052  0.19293977     0.18200
C431        C  0.10180670  0.90970016  0.27982844     0.12200
C432        C  0.09537595  0.85562940  0.22515980    -0.12100
H433        H  0.07992224  0.88073793  0.15879896     0.12500
C434        C  0.09228712  0.99459100  0.18185102    -0.23000
H435        H  0.10305978  0.96961342  0.24889375     0.08100
C436        C  0.13490329  0.91343163  0.29794350     0.04500
C437        C  0.13651645  0.90566640  0.33504281    -0.20200
C438        C  0.10597508  0.89393289  0.35441649    -0.12500
C439        C  0.07232588  0.89228767  0.33686966     0.13200
C440        C  0.07072971  0.90001118  0.29971548    -0.22900
C441        C  0.16869923  0.92484776  0.27804342    -0.06000
H442        H  0.16201200  0.90801062  0.34880157     0.14700
C443        C  0.03790054  0.88382050  0.35747259    -0.16200
H444        H  0.04510096  0.89847283  0.28600550     0.09000
H445        H  0.09933887  0.01113512  0.20480755     0.06900
H446        H  0.06528984  0.00166615  0.17208335     0.08100
H447        H  0.11270469  0.99866351  0.15981456     0.07100
H448        H  0.07456998  0.84940699  0.24618509     0.02000
H449        H  0.12256082  0.85077694  0.23606365     0.02500
H450        H  0.09109300  0.83898156  0.20159407     0.06000
H451        H  0.19234933  0.92569963  0.29616491     0.05000
H452        H  0.16500096  0.95014038  0.26699236    -0.00800
H453        H  0.17478907  0.90755431  0.25542721     0.00700
H454        H  0.03473679  0.90087545  0.38090762     0.04400
H455        H  0.03832630  0.85789953  0.36739011     0.06300
H456        H  0.01383684  0.88633731  0.34016383     0.07200
C457        C  0.45974756  0.24563276  0.95721777    -0.22500
C458        C  0.48308459  0.25140931  0.98596190     0.09500
C459        C  0.49545095  0.22453351  0.00629678     0.09900
C460        C  0.48568741  0.19218924  0.99619806    -0.17400
C461        C  0.46348728  0.18560715  0.96609062    -0.27800
C462        C  0.44875243  0.21338416  0.94770340     0.18200
C463        C  0.49081806  0.28599303  0.99690631     0.12200
C464        C  0.51810752  0.23003697  0.03943424    -0.12100
H465        H  0.49464753  0.17253669  0.01340667     0.12500
C466        C  0.42058486  0.21085285  0.91863246    -0.23000
H467        H  0.44899803  0.26666709  0.94281074     0.08100
C468        C  0.52259302  0.30303688  0.98556762     0.04500
C469        C  0.52846166  0.33578035  0.99723385    -0.20200
C470        C  0.50293353  0.35183865  0.01935504    -0.12500
C471        C  0.47099960  0.33472773  0.03041904     0.13200
C472        C  0.46541496  0.30196899  0.01905805    -0.22900
C473        C  0.54964641  0.28704203  0.96039983    -0.06000
H474        H  0.55241641  0.34932970  0.98800591     0.14700
C475        C  0.44247198  0.35005626  0.05447302    -0.16200
H476        H  0.44101999  0.28870469  0.02757768     0.09000
H477        H  0.43196661  0.22079002  0.89269742     0.06900
H478        H  0.39688683  0.22588050  0.92671113     0.08100
H479        H  0.41017710  0.18552619  0.91376149     0.07100
H480        H  0.50322800  0.24560158  0.05931566     0.02000
H481        H  0.54388000  0.24273355  0.03173136     0.02500
H482        H  0.52468831  0.20634304  0.05301516     0.06000
H483        H  0.57249560  0.30418009  0.95345243     0.05000
H484        H  0.53632051  0.27971416  0.93482096    -0.00800
H485        H  0.56082542  0.26466914  0.97331398     0.00700
H486        H  0.41678498  0.35157640  0.03951388     0.04400
H487        H  0.44997540  0.37524029  0.06396252     0.06300
H488        H  0.43795282  0.33433678  0.07892504     0.07200
C489        C  0.49029140  0.08568151  0.73010837    -0.22500
C490        C  0.48959586  0.06395611  0.75979836     0.09500
C491        C  0.49741145  0.03020071  0.75452017     0.09900
C492        C  0.50542180  0.01875766  0.71942063    -0.17400
C493        C  0.50613437  0.04038277  0.68949840    -0.27800
C494        C  0.49839062  0.07433869  0.69492693     0.18200
C495        C  0.47984009  0.07691310  0.79615597     0.12200
C496        C  0.49741305  0.00635521  0.78599796    -0.12100
H497        H  0.51120563  0.99275158  0.71529100     0.12500
C498        C  0.49700207  0.09842793  0.66371036    -0.23000
H499        H  0.48402863  0.11155226  0.73450804     0.08100
C500        C  0.50542035  0.09350736  0.81768280     0.04500
C501        C  0.49493015  0.10511711  0.85202031    -0.20200
C502        C  0.45950831  0.10034228  0.86553006    -0.12500
C503        C  0.43371317  0.08407538  0.84360892     0.13200
C504        C  0.44435476  0.07238073  0.80926172    -0.22900
C505        C  0.54395716  0.09826526  0.80477911    -0.06000
H506        H  0.51478454  0.11735815  0.86885134     0.14700
C507        C  0.39462120  0.07960664  0.85470758    -0.16200
H508        H  0.42473569  0.05985214  0.79237779     0.09000
H509        H  0.48814312  0.12333290  0.67271015     0.06900
H510        H  0.47765424  0.08924419  0.64320950     0.08100
H511        H  0.52419835  0.10144758  0.65106516     0.07100
H512        H  0.47022724  0.00526651  0.79913472     0.02000
H513        H  0.51750551  0.01472657  0.80616775     0.02500
H514        H  0.50445444  0.98089289  0.77721963     0.06000
H515        H  0.56043989  0.11177443  0.82503441     0.05000
H516        H  0.54480453  0.11278794  0.77918490    -0.00800
H517        H  0.55633619  0.07373261  0.79992371     0.00700
H518        H  0.37726643  0.09077114  0.83383104     0.04400
H519        H  0.38790738  0.09168310  0.88075056     0.06300
H520        H  0.38791719  0.05275964  0.85703009     0.07200
C521        C  0.25144558  0.02640239  0.94841285    -0.22500
C522        C  0.26606806  0.04541074  0.97655054     0.09500
C523        C  0.24568397  0.05024062  0.00874816     0.09900
C524        C  0.21126730  0.03538103  0.01235825    -0.17400
C525        C  0.19621038  0.01702386  0.98388224    -0.27800
C526        C  0.21650460  0.01248822  0.95149022     0.18200
C527        C  0.30210187  0.06131198  0.97095353     0.12200
C528        C  0.25976720  0.07197158  0.03870896    -0.12100
H529        H  0.19535755  0.03932577  0.03690098     0.12500
C530        C  0.20153976  0.99277781  0.92033245    -0.23000
H531        H  0.26721326  0.02303402  0.92368209     0.08100
C532        C  0.33408572  0.04548242  0.98109077     0.04500
C533        C  0.36756927  0.06142570  0.97451927    -0.20200
C534        C  0.36976171  0.09305936  0.95853025    -0.12500
C535        C  0.33753795  0.10873225  0.94803203     0.13200
C536        C  0.30415193  0.09257753  0.95443378    -0.22900
C537        C  0.33279583  0.01183827  0.99887541    -0.06000
H538        H  0.39218171  0.04929814  0.98232659     0.14700
C539        C  0.33795684  0.14170238  0.92865529    -0.16200
H540        H  0.27938647  0.10433058  0.94642674     0.09000
H541        H  0.19398574  0.96738391  0.92966392     0.06900
H542        H  0.22156447  0.99061013  0.89771695     0.08100
H543        H  0.17740221  0.00509540  0.90951414     0.07100
H544        H  0.26480139  0.09747482  0.02822508     0.02000
H545        H  0.28537526  0.06196250  0.04900747     0.02500
H546        H  0.24020713  0.07347146  0.06180910     0.06000
H547        H  0.36026982  0.00279207  0.00472547     0.05000
H548        H  0.31942304  0.99363753  0.98075418    -0.00800
H549        H  0.31735678  0.01307998  0.02489231     0.00700
H550        H  0.31061118  0.14840528  0.91946898     0.04400
H551        H  0.35600918  0.14074612  0.90435433     0.06300
H552        H  0.34712082  0.16174490  0.94695325     0.07200
C553        C  0.02248767  0.40377641  0.31400910    -0.22500
C554        C  0.99006286  0.41276145  0.29775927     0.09500
C555        C  0.96521011  0.43230188  0.31717667     0.09900
C556        C  0.97298651  0.44203165  0.35266994    -0.17400
C557        C  0.00551836  0.43344094  0.36927820    -0.27800
C558        C  0.03080057  0.41421833  0.34942881     0.18200
C559        C  0.98267491  0.40258539  0.25992953     0.12200
C560        C  0.93088704  0.44372993  0.29998418    -0.12100
H561        H  0.95352580  0.45688374  0.36743371     0.12500
C562        C  0.06719959  0.40610592  0.36446515    -0.23000
H563        H  0.04163991  0.38912585  0.29858980     0.08100
C564        C  0.99690200  0.42069852  0.23005304     0.04500
C565        C  0.98697442  0.41170234  0.19475927    -0.20200
C566        C  0.96241341  0.38555469  0.18876858    -0.12500
C567        C  0.94695678  0.36832938  0.21895410     0.13200
C568        C  0.95787589  0.37668633  0.25407919    -0.22900
C569        C  0.02143673  0.45028744  0.23559618    -0.06000
H570        H  0.99810047  0.42538657  0.17172767     0.14700
C571        C  0.91735441  0.34262122  0.21474823    -0.16200
H572        H  0.94611597  0.36370716  0.27729826     0.09000
H573        H  0.08423369  0.39270231  0.34437636     0.06900
H574        H  0.06390472  0.39001268  0.38875178     0.08100
H575        H  0.08174316  0.42935503  0.37183697     0.07100
H576        H  0.91377969  0.42200745  0.29268568     0.02000
H577        H  0.93753201  0.45829027  0.27510246     0.02500
H578        H  0.91489948  0.45969968  0.31856076     0.06000
H579        H  0.02953071  0.46215392  0.20944042     0.05000
H580        H  0.04625939  0.44253870  0.24952689    -0.00800
H581        H  0.00731427  0.46903858  0.25245146     0.00700
H582        H  0.92824489  0.32005240  0.20183799     0.04400
H583        H  0.89530469  0.35270382  0.19818707     0.06300
H584        H  0.90538753  0.33504901  0.24137598     0.07200
C585        C  0.81566875  0.43522796  0.14327064    -0.22500
C586        C  0.79574369  0.43412716  0.11134487     0.09500
C587        C  0.81190309  0.42191274  0.07926249     0.09900
C588        C  0.84694379  0.40937463  0.08026834    -0.17400
C589        C  0.86664243  0.40882996  0.11253199    -0.27800
C590        C  0.85088850  0.42263967  0.14445123     0.18200
C591        C  0.75799889  0.44597174  0.11142249     0.12200
C592        C  0.79213846  0.42219503  0.04385516    -0.12100
H593        H  0.85894167  0.39939057  0.05565289     0.12500
C594        C  0.86907328  0.42346649  0.18062525    -0.23000
H595        H  0.80327335  0.44519562  0.16770611     0.08100
C596        C  0.72833595  0.42371691  0.11349977     0.04500
C597        C  0.69346828  0.43526278  0.10673799    -0.20200
C598        C  0.68729297  0.46868682  0.09771732    -0.12500
C599        C  0.71731710  0.49138927  0.09825903     0.13200
C600        C  0.75204562  0.47956870  0.10519490    -0.22900
C601        C  0.73363390  0.38760775  0.12216561    -0.06000
H602        H  0.67113729  0.41761371  0.10728420     0.14700
C603        C  0.71402586  0.52796094  0.09060339    -0.16200
H604        H  0.77513846  0.49641022  0.10401373     0.09000
H605        H  0.85199573  0.41006465  0.20107500     0.06900
H606        H  0.87270687  0.44959337  0.18946943     0.08100
H607        H  0.89561402  0.41176977  0.18027247     0.07100
H608        H  0.78549004  0.44808551  0.03657541     0.02000
H609        H  0.76677565  0.40731642  0.04626074     0.02500
H610        H  0.80865628  0.41165171  0.02137284     0.06000
H611        H  0.70767350  0.37345327  0.12242870     0.05000
H612        H  0.74581628  0.38529318  0.14933453    -0.00800
H613        H  0.75182531  0.37617708  0.10165771     0.00700
H614        H  0.74005926  0.54154754  0.09402075     0.04400
H615        H  0.69412734  0.53906643  0.10969289     0.06300
H616        H  0.70590261  0.53182355  0.06214068     0.07200
C617        C  0.93747277  0.18754992  0.02825648    -0.22500
C618        C  0.95275897  0.20471272  0.05744579     0.09500
C619        C  0.97720959  0.18857238  0.08004021     0.09900
C620        C  0.98541213  0.15545896  0.07334083    -0.17400
C621        C  0.97129088  0.13815550  0.04343004    -0.27800
C622        C  0.94686045  0.15453933  0.02054156     0.18200
C623        C  0.94500221  0.24022351  0.06314150     0.12200
C624        C  0.99602632  0.20671554  0.11029619    -0.12100
H625        H  0.00398999  0.14330835  0.09124889     0.12500
C626        C  0.93196133  0.13821999  0.98714937    -0.23000
H627        H  0.91899959  0.20041454  0.01084714     0.08100
C628        C  0.96260102  0.26496566  0.04227929     0.04500
C629        C  0.95979965  0.29826291  0.05275448    -0.20200
C630        C  0.94006147  0.30779222  0.08414364    -0.12500
C631        C  0.92027080  0.28241322  0.10349626     0.13200
C632        C  0.92334039  0.24923346  0.09273886    -0.22900
C633        C  0.98540695  0.25606940  0.00954319    -0.06000
H634        H  0.97379217  0.31625303  0.03600363     0.14700
C635        C  0.89603799  0.28826950  0.13619969    -0.16200
H636        H  0.90964039  0.22991843  0.10846988     0.09000
H637        H  0.91489593  0.15536998  0.97154926     0.06900
H638        H  0.91494311  0.11640121  0.99496067     0.08100
H639        H  0.95449543  0.13031874  0.96902630     0.07100
H640        H  0.97594026  0.21535451  0.13071141     0.02000
H641        H  0.01131566  0.22841235  0.09907275     0.02500
H642        H  0.01544700  0.19065588  0.12440543     0.06000
H643        H  0.99807035  0.27831017  0.99653925     0.05000
H644        H  0.96835789  0.24348891  0.98910381    -0.00800
H645        H  0.00730788  0.23923332  0.01764849     0.00700
H646        H  0.86846483  0.27861431  0.13057728     0.04400
H647        H  0.89322314  0.31440458  0.14410347     0.06300
H648        H  0.90663032  0.27468092  0.15987018     0.07200
C649        C  0.57472442  0.98993598  0.04155235    -0.22500
C650        C  0.53758281  0.98471346  0.03750612     0.09500
C651        C  0.52069768  0.95620059  0.05248595     0.09900
C652        C  0.54165726  0.93318154  0.07087774    -0.17400
C653        C  0.57918517  0.93767745  0.07399729    -0.27800
C654        C  0.59588627  0.96681830  0.05962864     0.18200
C655        C  0.51703247  0.01015700  0.01821564     0.12200
C656        C  0.48088940  0.94952548  0.04805588    -0.12100
H657        H  0.52884430  0.91098508  0.08203425     0.12500
C658        C  0.63597633  0.97326515  0.06142027    -0.23000
H659        H  0.58721001  0.01218373  0.03014027     0.08100
C660        C  0.50063068  0.03622802  0.03738283     0.04500
C661        C  0.48343669  0.06113162  0.01806071    -0.20200
C662        C  0.48348666  0.06139036  0.97993425    -0.12500
C663        C  0.50086111  0.03568765  0.96064485     0.13200
C664        C  0.51691605  0.00996964  0.98015789    -0.22900
C665        C  0.50254375  0.03848498  0.07813118    -0.06000
H666        H  0.47066171  0.08114668  0.03282517     0.14700
C667        C  0.50495372  0.03644185  0.91991225    -0.16200
H668        H  0.53061662  0.99025996  0.96575393     0.09000
H669        H  0.64420991  0.97700858  0.08985550     0.06900
H670        H  0.64426660  0.99601825  0.04624519     0.08100
H671        H  0.65064625  0.95224369  0.04915679     0.07100
H672        H  0.47472321  0.94759928  0.01877134     0.02000
H673        H  0.46498284  0.96991185  0.06016872     0.02500
H674        H  0.47211902  0.92601171  0.06148473     0.06000
H675        H  0.48916236  0.06105271  0.08868559     0.05000
H676        H  0.53121623  0.03947882  0.08643150    -0.00800
H677        H  0.48906429  0.01657737  0.09088761     0.00700
H678        H  0.52149477  0.01556716  0.90971572     0.04400
H679        H  0.51861058  0.05992155  0.91132035     0.06300
H680        H  0.47824971  0.03437718  0.90701621     0.07200
C681        C  0.56177432  0.94967093  0.30045853    -0.22500
C682        C  0.56179151  0.91594745  0.29211073     0.09500
C683        C  0.55309736  0.89248786  0.31945810     0.09900
C684        C  0.54668182  0.90342696  0.35527292    -0.17400
C685        C  0.54878499  0.93734564  0.36422897    -0.27800
C686        C  0.55505494  0.96081124  0.33583746     0.18200
C687        C  0.57385934  0.90646296  0.25502786     0.12200
C688        C  0.55065734  0.85607805  0.31077608    -0.12100
H689        H  0.54108667  0.88534176  0.37647515     0.12500
C690        C  0.55414421  0.99779100  0.34191869    -0.23000
H691        H  0.56797550  0.96745828  0.27907773     0.08100
C692        C  0.55161111  0.91059306  0.22467505     0.04500
C693        C  0.56591478  0.90494206  0.18969780    -0.20200
C694        C  0.60210696  0.89600366  0.18445831    -0.12500
C695        C  0.62459928  0.89277971  0.21473848     0.13200
C696        C  0.61006018  0.89766506  0.24969166    -0.22900
C697        C  0.51285611  0.92083284  0.22924972    -0.06000
H698        H  0.54878043  0.90728943  0.16630824     0.14700
C699        C  0.66410845  0.88483883  0.21108037    -0.16200
H700        H  0.62739356  0.89555675  0.27296105     0.09000
H701        H  0.55577695  0.01180924  0.31597291     0.06900
H702        H  0.57749773  0.00603989  0.35821924     0.08100
H703        H  0.52839698  0.00444198  0.35572451     0.07100
H704        H  0.57717184  0.84730753  0.30047481     0.02000
H705        H  0.53000862  0.85181532  0.28973192     0.02500
H706        H  0.54283706  0.84110799  0.33505437     0.06000
H707        H  0.49919828  0.92264643  0.20275080     0.05000
H708        H  0.51154748  0.94546825  0.24253986    -0.00800
H709        H  0.49789534  0.90231314  0.24625763     0.00700
H710        H  0.68040620  0.90519680  0.22320663     0.04400
H711        H  0.67324578  0.88192957  0.18250064     0.06300
H712        H  0.66955247  0.86141048  0.22567969     0.07200
C713        C  0.62622860  0.69779123  0.02729288    -0.22500
C714        C  0.59682886  0.71839846  0.03421530     0.09500
C715        C  0.56140072  0.70590773  0.03004277     0.09900
C716        C  0.55609390  0.67248248  0.02065218    -0.17400
C717        C  0.58541816  0.65097600  0.01632336    -0.27800
C718        C  0.62107440  0.66412977  0.01874103     0.18200
C719        C  0.60369145  0.75195747  0.04918851     0.12200
C720        C  0.52922547  0.72758951  0.03685451    -0.12100
H721        H  0.52877548  0.66269186  0.01881792     0.12500
C722        C  0.65388942  0.64303035  0.01258985    -0.23000
H723        H  0.65334821  0.70778099  0.03030380     0.08100
C724        C  0.60602412  0.75697461  0.08680060     0.04500
C725        C  0.61191704  0.78907750  0.10022759    -0.20200
C726        C  0.61533560  0.81699770  0.07711103    -0.12500
C727        C  0.61577608  0.81096088  0.03880587     0.13200
C728        C  0.60900881  0.77877868  0.02566195    -0.22900
C729        C  0.60265506  0.72820982  0.11287471    -0.06000
H730        H  0.61496587  0.79154215  0.12908918     0.14700
C731        C  0.62372652  0.83699051  0.01024742    -0.16200
H732        H  0.60838721  0.77445237  0.99664244     0.09000
H733        H  0.67918281  0.65818523  0.01212149     0.06900
H734        H  0.65197317  0.63004105  0.98614292     0.08100
H735        H  0.65625347  0.62468598  0.03480472     0.07100
H736        H  0.53051882  0.74923710  0.01823059     0.02000
H737        H  0.52913057  0.73655006  0.06531153     0.02500
H738        H  0.50339179  0.71399786  0.03233896     0.06000
H739        H  0.60502162  0.73630089  0.14152587     0.05000
H740        H  0.62435462  0.71017612  0.10708668    -0.00800
H741        H  0.57600045  0.71565494  0.10991973     0.00700
H742        H  0.64683193  0.82902734  0.99291611     0.04400
H743        H  0.63115920  0.86138673  0.02118502     0.06300
H744        H  0.59974319  0.83994904  0.99293643     0.07200
C745        C  0.75210079  0.93322933  0.06429761    -0.22500
C746        C  0.76513903  0.95052402  0.09424344     0.09500
C747        C  0.74357899  0.95260088  0.12603772     0.09900
C748        C  0.71007353  0.93556927  0.12774669    -0.17400
C749        C  0.69740661  0.91709254  0.09805793    -0.27800
C750        C  0.71819534  0.91745784  0.06526069     0.18200
C751        C  0.80260053  0.96389558  0.09173804     0.12200
C752        C  0.75599797  0.97272051  0.15795952    -0.12100
H753        H  0.69400921  0.93630238  0.15255719     0.12500
C754        C  0.70509361  0.90339596  0.02996317    -0.23000
H755        H  0.76849761  0.93235760  0.03964812     0.08100
C756        C  0.83178765  0.94367498  0.10066733     0.04500
C757        C  0.86700550  0.95427785  0.09187276    -0.20200
C758        C  0.87415159  0.98470565  0.07409533    -0.12500
C759        C  0.84484484  0.00576712  0.06681665     0.13200
C760        C  0.80935108  0.99495219  0.07556459    -0.22900
C761        C  0.82569402  0.91027572  0.11837801    -0.06000
H762        H  0.88907131  0.93790599  0.09783890     0.14700
C763        C  0.85062603  0.03961695  0.05032209    -0.16200
H764        H  0.78666662  0.01030658  0.06877522     0.09000
H765        H  0.72128201  0.88147751  0.02224647     0.06900
H766        H  0.70814792  0.92247339  0.00832806     0.08100
H767        H  0.67621181  0.89663905  0.03095853     0.07100
H768        H  0.76007551  0.99898148  0.14957271     0.02000
H769        H  0.78185121  0.96305746  0.16805160     0.02500
H770        H  0.73586837  0.97192813  0.18063988     0.06000
H771        H  0.85152645  0.89761892  0.12357885     0.05000
H772        H  0.80928260  0.89405611  0.10055603    -0.00800
H773        H  0.81127453  0.91330287  0.14476537     0.00700
H774        H  0.86096931  0.03722206  0.02211288     0.04400
H775        H  0.87013483  0.05418307  0.06666469     0.06300
H776        H  0.82507415  0.05363284  0.04938689     0.07200
C777        C  0.44773320  0.23584903  0.46490786    -0.22500
C778        C  0.46196350  0.23311014  0.49966100     0.09500
C779        C  0.46815405  0.26197130  0.52004973     0.09900
C780        C  0.46113167  0.29310247  0.50473768    -0.17400
C781        C  0.44846304  0.29659601  0.46887436    -0.27800
C782        C  0.43966093  0.26685228  0.44973241     0.18200
C783        C  0.47110305  0.19975026  0.51366148     0.12200
C784        C  0.48215904  0.25984550  0.55811908    -0.12100
H785        H  0.46477814  0.31446180  0.52187819     0.12500
C786        C  0.42110475  0.26605727  0.41361411    -0.23000
H787        H  0.44226461  0.21340626  0.44964607     0.08100
C788        C  0.44527368  0.17897916  0.53131210     0.04500
C789        C  0.45480365  0.14659744  0.54122063    -0.20200
C790        C  0.48962751  0.13456868  0.53397913    -0.12500
C791        C  0.51574024  0.15592406  0.51723941     0.13200
C792        C  0.50612145  0.18823113  0.50747913    -0.22900
C793        C  0.40752596  0.19076517  0.53896273    -0.06000
H794        H  0.43471488  0.13027016  0.55381421     0.14700
C795        C  0.55315884  0.14433872  0.50749186    -0.16200
H796        H  0.52574076  0.20437670  0.49389141     0.09000
H797        H  0.39734438  0.24896931  0.41533757     0.06900
H798        H  0.44005049  0.25677880  0.39240653     0.08100
H799        H  0.41058720  0.29023253  0.40503824     0.07100
H800        H  0.50881954  0.24762457  0.55781728     0.02000
H801        H  0.46297547  0.24518018  0.57540949     0.02500
H802        H  0.48554426  0.28473096  0.57056828     0.06000
H803        H  0.39057026  0.17130904  0.55253593     0.05000
H804        H  0.39449166  0.19757547  0.51317203    -0.00800
H805        H  0.40841936  0.21277684  0.55697064     0.00700
H806        H  0.56925362  0.16377484  0.49289040     0.04400
H807        H  0.55152608  0.12229137  0.48957999     0.06300
H808        H  0.56777159  0.13814426  0.53249038     0.07200
C809        C  0.30639683  0.41105817  0.41408499    -0.22500
C810        C  0.28935796  0.41220744  0.44835809     0.09500
C811        C  0.30807245  0.40110185  0.47899523     0.09900
C812        C  0.34314656  0.38874022  0.47465293    -0.17400
C813        C  0.36017389  0.38704783  0.44035405    -0.27800
C814        C  0.34156529  0.39852576  0.40966434     0.18200
C815        C  0.25133994  0.42366015  0.45168938     0.12200
C816        C  0.29087670  0.40211026  0.51629934    -0.12100
H817        H  0.35737309  0.38009708  0.49822619     0.12500
C818        C  0.35773395  0.39598137  0.37205767    -0.23000
H819        H  0.29178231  0.41937729  0.39062788     0.08100
C820        C  0.24293752  0.45736192  0.45597280     0.04500
C821        C  0.20682300  0.46653287  0.46211436    -0.20200
C822        C  0.17832677  0.44283876  0.46469534    -0.12500
C823        C  0.18714720  0.40887007  0.45905340     0.13200
C824        C  0.22335582  0.39997904  0.45256199    -0.22900
C825        C  0.27227401  0.48362218  0.45488833    -0.06000
H826        H  0.20115440  0.49259062  0.46575167     0.14700
C827        C  0.15933592  0.38134719  0.46049753    -0.16200
H828        H  0.23016273  0.37410992  0.44908669     0.09000
H829        H  0.38273831  0.41129964  0.36969392     0.06900
H830        H  0.33886574  0.40475755  0.35114653     0.08100
H831        H  0.36395235  0.36974265  0.36610907     0.07100
H832        H  0.26599262  0.38641939  0.51699540     0.02000
H833        H  0.28380311  0.42801130  0.52325812     0.02500
H834        H  0.30928514  0.39279424  0.53734727     0.06000
H835        H  0.26126429  0.50884691  0.45886716     0.05000
H836        H  0.28659170  0.48307347  0.42819795    -0.00800
H837        H  0.29187987  0.47898135  0.47669181     0.00700
H838        H  0.17129299  0.35676245  0.45476172     0.04400
H839        H  0.13857305  0.38562642  0.43972940     0.06300
H840        H  0.14706549  0.38002686  0.48811866     0.07200
C841        C  0.47113236  0.43860906  0.24148836    -0.22500
C842        C  0.49465336  0.41549149  0.25593075     0.09500
C843        C  0.52524807  0.40596398  0.23541599     0.09900
C844        C  0.53196699  0.42029078  0.20100507    -0.17400
C845        C  0.50864946  0.44393923  0.18628322    -0.27800
C846        C  0.47743926  0.45293735  0.20714126     0.18200
C847        C  0.48616006  0.40168235  0.29262665     0.12200
C848        C  0.55077129  0.38069198  0.24994698    -0.12100
H849        H  0.55576043  0.41302732  0.18564898     0.12500
C850        C  0.44978576  0.47692595  0.19366059    -0.23000
H851        H  0.44751357  0.44547541  0.25740577     0.08100
C852        C  0.49518237  0.41916110  0.32443647     0.04500
C853        C  0.48377586  0.40663893  0.35843387    -0.20200
C854        C  0.46355368  0.37696139  0.36147985    -0.12500
C855        C  0.45491527  0.35924570  0.32952930     0.13200
C856        C  0.46628290  0.37191583  0.29553689    -0.22900
C857        C  0.51655141  0.45119977  0.32240312    -0.06000
H858        H  0.49052263  0.42021654  0.38281276     0.14700
C859        C  0.43252365  0.32774528  0.33077760    -0.16200
H860        H  0.45908519  0.35885935  0.27095855     0.09000
H861        H  0.46202436  0.50207632  0.19060572     0.06900
H862        H  0.42649389  0.47918806  0.21285045     0.08100
H863        H  0.43899032  0.46814168  0.16742081     0.07100
H864        H  0.53610622  0.35681050  0.25458360     0.02000
H865        H  0.56201340  0.38951426  0.27599440     0.02500
H866        H  0.57362781  0.37618641  0.23077304     0.06000
H867        H  0.52141246  0.46169081  0.34976152     0.05000
H868        H  0.50163477  0.46977771  0.30652311    -0.00800
H869        H  0.54313804  0.44684430  0.30901425     0.00700
H870        H  0.42578862  0.31892676  0.30315156     0.04400
H871        H  0.40683154  0.33186653  0.34583161     0.06300
H872        H  0.44761787  0.30776562  0.34410699     0.07200
C873        C  0.04132046  0.45232805  0.04864978    -0.22500
C874        C  0.02309747  0.48047959  0.03701069     0.09500
C875        C  0.98570186  0.48308996  0.04441072     0.09900
C876        C  0.96739396  0.45740645  0.06337601    -0.17400
C877        C  0.98552451  0.42896203  0.07462827    -0.27800
C878        C  0.02325190  0.42678873  0.06781952     0.18200
C879        C  0.04426177  0.50742063  0.01852888     0.12200
C880        C  0.96515334  0.51288278  0.03214417    -0.12100
H881        H  0.93856690  0.45907291  0.06850280     0.12500
C882        C  0.04570928  0.39860782  0.08135441    -0.23000
H883        H  0.07012622  0.45058980  0.04333435     0.08100
C884        C  0.06640248  0.52943223  0.03827000     0.04500
C885        C  0.08721105  0.55366612  0.01969418    -0.20200
C886        C  0.08605928  0.55683088  0.98175842    -0.12500
C887        C  0.06253220  0.53561851  0.96220710     0.13200
C888        C  0.04244491  0.51083547  0.98079297    -0.22900
C889        C  0.06747188  0.52769508  0.07904631    -0.06000
H890        H  0.10454574  0.57026952  0.03488713     0.14700
C891        C  0.05644897  0.54022744  0.92228816    -0.16200
H892        H  0.02484910  0.49423041  0.96589487     0.09000
H893        H  0.06847371  0.40873353  0.09736151     0.06900
H894        H  0.05686485  0.38459726  0.05790765     0.08100
H895        H  0.03043890  0.38124804  0.09937419     0.07100
H896        H  0.96639300  0.51465808  0.00210054     0.02000
H897        H  0.97716116  0.53573988  0.04394893     0.02500
H898        H  0.93628167  0.51132571  0.04073001     0.06000
H899        H  0.08511193  0.54745966  0.09042735     0.05000
H900        H  0.07800816  0.50336487  0.08765501    -0.00800
H901        H  0.03981745  0.53076932  0.09056906     0.00700
H902        H  0.08129005  0.53482761  0.90642664     0.04400
H903        H  0.04785763  0.56601839  0.91728321     0.06300
H904        H  0.03486919  0.52335928  0.91224899     0.07200
C905        C  0.25271161  0.54223419  0.96725442    -0.22500
C906        C  0.27882988  0.55664009  0.94393240     0.09500
C907        C  0.26836249  0.57989572  0.91773574     0.09900
C908        C  0.23231093  0.58989671  0.91708331    -0.17400
C909        C  0.20636930  0.57679149  0.94161448    -0.27800
C910        C  0.21655834  0.55215572  0.96660179     0.18200
C911        C  0.31742925  0.54982674  0.94990008     0.12200
C912        C  0.29553922  0.59518938  0.89156984    -0.12100
H913        H  0.22465071  0.60926121  0.89845911     0.12500
C914        C  0.19079951  0.53729275  0.99438484    -0.23000
H915        H  0.26096874  0.52432413  0.98732071     0.08100
C916        C  0.33638080  0.56599784  0.97786756     0.04500
C917        C  0.37321277  0.55989432  0.98202641    -0.20200
C918        C  0.39121182  0.53722030  0.95965235    -0.12500
C919        C  0.37237902  0.52133244  0.93129289     0.13200
C920        C  0.33561382  0.52789649  0.92676036    -0.22900
C921        C  0.31760025  0.58921049  0.00377438    -0.06000
H922        H  0.38765949  0.57167498  0.00399039     0.14700
C923        C  0.39032080  0.49785268  0.90507874    -0.16200
H924        H  0.32101908  0.51583837  0.90507948     0.09000
H925        H  0.20087913  0.54244855  0.02203297     0.06900
H926        H  0.18896838  0.51004616  0.99041542     0.08100
H927        H  0.16329407  0.54727484  0.99278840     0.07100
H928        H  0.30810563  0.57549410  0.87479788     0.02000
H929        H  0.31687846  0.60855960  0.90676787     0.02500
H930        H  0.28281941  0.61309176  0.87297580     0.06000
H931        H  0.33655660  0.60002664  0.02372832     0.05000
H932        H  0.29602293  0.57555932  0.01911875    -0.00800
H933        H  0.30546399  0.60985654  0.98849132     0.00700
H934        H  0.37768273  0.47282229  0.90783985     0.04400
H935        H  0.41974244  0.49575308  0.90939066     0.06300
H936        H  0.38668782  0.50683945  0.87690859     0.07200
C937        C  0.11709431  0.56509522  0.80642983    -0.22500
C938        C  0.08212211  0.57405065  0.79673628     0.09500
C939        C  0.06005394  0.59089308  0.82194254     0.09900
C940        C  0.07408709  0.59978338  0.85572137    -0.17400
C941        C  0.10914728  0.59094063  0.86562192    -0.27800
C942        C  0.13084160  0.57305389  0.84069936     0.18200
C943        C  0.06930864  0.56543869  0.75997760     0.12200
C944        C  0.02175715  0.59948804  0.81318038    -0.12100
H945        H  0.05737442  0.61336598  0.87482580     0.12500
C946        C  0.16898347  0.56369629  0.84909243    -0.23000
H947        H  0.13374715  0.55194091  0.78690665     0.08100
C948        C  0.08003446  0.58418964  0.72915631     0.04500
C949        C  0.06937612  0.57364287  0.69458722    -0.20200
C950        C  0.04855685  0.54460991  0.69019090    -0.12500
C951        C  0.03643478  0.52673392  0.72127974     0.13200
C952        C  0.04701033  0.53739873  0.75580978    -0.22900
C953        C  0.10298694  0.61511258  0.73277053    -0.06000
H954        H  0.07861071  0.58733192  0.67077333     0.14700
C955        C  0.01194126  0.49671906  0.71825075    -0.16200
H956        H  0.03849038  0.52342990  0.77967844     0.09000
H957        H  0.18243882  0.55137180  0.82568614     0.06900
H958        H  0.16939363  0.54614886  0.87217747     0.08100
H959        H  0.18486428  0.58635124  0.85551581     0.07100
H960        H  0.00591672  0.57645405  0.80795446     0.02000
H961        H  0.02146743  0.61556380  0.78873558     0.02500
H962        H  0.00829617  0.61283295  0.83588827     0.06000
H963        H  0.10869311  0.62697890  0.70603591     0.05000
H964        H  0.12918868  0.60896147  0.74508445    -0.00800
H965        H  0.08875272  0.63327651  0.75029028     0.00700
H966        H  0.02613245  0.47639725  0.70399853     0.04400
H967        H  0.98740368  0.50329748  0.70309577     0.06300
H968        H  0.00316610  0.48724342  0.74535225     0.07200
C969        C  0.11025817  0.79333094  0.02172522    -0.22500
C970        C  0.11423740  0.78135707  0.98620771     0.09500
C971        C  0.11115570  0.80329144  0.95664110     0.09900
C972        C  0.10280877  0.83652363  0.96322891    -0.17400
C973        C  0.09754732  0.84837632  0.99866781    -0.27800
C974        C  0.10146687  0.82655050  0.02841192     0.18200
C975        C  0.11876344  0.74533228  0.98027551     0.12200
C976        C  0.11641879  0.79156775  0.91813721    -0.12100
H977        H  0.09947723  0.85325455  0.94052205     0.12500
C978        C  0.09433655  0.83664227  0.06723957    -0.23000
H979        H  0.11238358  0.77627146  0.04431482     0.08100
C980        C  0.15208939  0.72987131  0.98469151     0.04500
C981        C  0.15513778  0.69595375  0.97687327    -0.20200
C982        C  0.12572917  0.67675098  0.96377368    -0.12500
C983        C  0.09172914  0.69279107  0.96073692     0.13200
C984        C  0.08898661  0.72659651  0.96906477    -0.22900
C985        C  0.18469275  0.74941190  0.99692901    -0.06000
H986        H  0.18107210  0.68528679  0.98122763     0.14700
C987        C  0.05727159  0.67601800  0.94843607    -0.16200
H988        H  0.06324908  0.73874365  0.96619252     0.09000
H989        H  0.11939720  0.83401124  0.08300584     0.06900
H990        H  0.07300623  0.82021406  0.07934636     0.08100
H991        H  0.08502799  0.86246235  0.07014380     0.07100
H992        H  0.09594654  0.77219292  0.91168707     0.02000
H993        H  0.14383948  0.78114711  0.91467671     0.02500
H994        H  0.11366935  0.81211134  0.89833407     0.06000
H995        H  0.20910197  0.73382387  0.99822756     0.05000
H996        H  0.17947939  0.75976739  0.02436725    -0.00800
H997        H  0.19052581  0.77005395  0.97764435     0.00700
H998        H  0.03609870  0.67856196  0.96990925     0.04400
H999        H  0.05944046  0.64936356  0.94246856     0.06300
H1000       H  0.04791587  0.68833854  0.92341294     0.07200
C1001       C  0.07086022  0.95702612  0.53112193    -0.22500
C1002       C  0.05291196  0.98105165  0.51110065     0.09500
C1003       C  0.05618407  0.98096253  0.47286426     0.09900
C1004       C  0.07430930  0.95483673  0.45545491    -0.17400
C1005       C  0.09054643  0.92960640  0.47547164    -0.27800
C1006       C  0.09059539  0.93194169  0.51387251     0.18200
C1007       C  0.03134413  0.00620479  0.53099167     0.12200
C1008       C  0.04120361  0.00870006  0.45053484    -0.12100
H1009       H  0.07514685  0.95376001  0.42607864     0.12500
C1010       C  0.11223113  0.90940459  0.53753683    -0.23000
H1011       H  0.06979056  0.95809050  0.56051158     0.08100
C1012       C  0.99340199  0.00312620  0.53491550     0.04500
C1013       C  0.97418392  0.02753585  0.55408957    -0.20200
C1014       C  0.99208585  0.05465942  0.56986119    -0.12500
C1015       C  0.03030223  0.05663472  0.56768133     0.13200
C1016       C  0.04939547  0.03252251  0.54800648    -0.22900
C1017       C  0.97329459  0.97373904  0.51954515    -0.06000
H1018       H  0.94499026  0.02575461  0.55627829     0.14700
C1019       C  0.05120065  0.08337666  0.58707507    -0.16200
H1020       H  0.07860479  0.03410901  0.54591890     0.09000
H1021       H  0.09369029  0.89404810  0.55482401     0.06900
H1022       H  0.12978982  0.92464248  0.55530692     0.08100
H1023       H  0.13037492  0.89295848  0.52186971     0.07100
H1024       H  0.05414578  0.03253942  0.45853217     0.02000
H1025       H  0.01161903  0.01044052  0.45490845     0.02500
H1026       H  0.04648375  0.00494922  0.42108523     0.06000
H1027       H  0.94388053  0.97483185  0.52573036     0.05000
H1028       H  0.98369387  0.95052848  0.53143018    -0.00800
H1029       H  0.97694567  0.97284543  0.48966533     0.00700
H1030       H  0.08079482  0.07956610  0.58479818     0.04400
H1031       H  0.04354567  0.08330900  0.61633540     0.06300
H1032       H  0.04564689  0.10791520  0.57513225     0.07200
C1033       C  0.98730025  0.22404967  0.57199169    -0.22500
C1034       C  0.95800043  0.24063339  0.55762652     0.09500
C1035       C  0.92506679  0.22354953  0.55321931     0.09900
C1036       C  0.92194319  0.19022421  0.56406866    -0.17400
C1037       C  0.95088825  0.17320638  0.58007498    -0.27800
C1038       C  0.98445532  0.19090140  0.58336483     0.18200
C1039       C  0.96221146  0.27646981  0.54943096     0.12200
C1040       C  0.89291270  0.24077145  0.53775665    -0.12100
H1041       H  0.89627228  0.17831897  0.55982605     0.12500
C1042       C  0.01833944  0.17668024  0.59902904    -0.23000
H1043       H  0.01265510  0.23748521  0.57512547     0.08100
C1044       C  0.96154694  0.30012836  0.57754040     0.04500
C1045       C  0.96825769  0.33357674  0.56925849    -0.20200
C1046       C  0.97588566  0.34401443  0.53353788    -0.12500
C1047       C  0.97546887  0.32040674  0.50517289     0.13200
C1048       C  0.96859119  0.28681753  0.51351885    -0.22900
C1049       C  0.95383357  0.29003997  0.61632288    -0.06000
H1050       H  0.96849462  0.35163132  0.59102402     0.14700
C1051       C  0.98131345  0.33053194  0.46615706    -0.16200
H1052       H  0.96872789  0.26845150  0.49208106     0.09000
H1053       H  0.02661391  0.19173430  0.62276479     0.06900
H1054       H  0.04038446  0.17777729  0.57823524     0.08100
H1055       H  0.01583315  0.15079556  0.60827215     0.07100
H1056       H  0.89945207  0.24958649  0.50984523     0.02000
H1057       H  0.88573522  0.26231196  0.55501835     0.02500
H1058       H  0.86888088  0.22403600  0.53642536     0.06000
H1059       H  0.95371256  0.31175014  0.63482621     0.05000
H1060       H  0.97479517  0.27278305  0.62568596    -0.00800
H1061       H  0.92694958  0.27755593  0.61837832     0.00700
H1062       H  0.00909446  0.34049209  0.46197182     0.04400
H1063       H  0.96154606  0.34973259  0.45879250     0.06300
H1064       H  0.97778962  0.30920586  0.44745233     0.07200
C1065       C  0.81370386  0.05015401  0.62416793    -0.22500
C1066       C  0.80003810  0.04676451  0.58917820     0.09500
C1067       C  0.82304149  0.05272136  0.55891395     0.09900
C1068       C  0.85872181  0.06368643  0.56441984    -0.17400
C1069       C  0.87202272  0.06885702  0.59948013    -0.27800
C1070       C  0.84940368  0.06094409  0.62978619     0.18200
C1071       C  0.76108694  0.03855283  0.58512013     0.12200
C1072       C  0.80965063  0.04834985  0.52087012    -0.12100
H1073       H  0.87593452  0.06973491  0.54118193     0.12500
C1074       C  0.86105701  0.06486567  0.66838336    -0.23000
H1075       H  0.79600552  0.04520108  0.64735413     0.08100
C1076       C  0.74820617  0.00559913  0.58595915     0.04500
C1077       C  0.71100272  0.99919835  0.58333837    -0.20200
C1078       C  0.68583202  0.02492273  0.57941244    -0.12500
C1079       C  0.69916357  0.05818584  0.57879943     0.13200
C1080       C  0.73654248  0.06442283  0.58169897    -0.22900
C1081       C  0.77381772  0.97712604  0.58922694    -0.06000
H1082       H  0.70169316  0.97361163  0.58408227     0.14700
C1083       C  0.67477063  0.08739170  0.57483008    -0.16200
H1084       H  0.74682923  0.08973200  0.58133805     0.09000
H1085       H  0.85714008  0.04097431  0.68302684     0.06900
H1086       H  0.84453152  0.08407703  0.68203232     0.08100
H1087       H  0.88969253  0.07197540  0.67040079     0.07100
H1088       H  0.78657273  0.06499021  0.51626153     0.02000
H1089       H  0.80071921  0.02225170  0.51677601     0.02500
H1090       H  0.83105308  0.05431034  0.50030331     0.06000
H1091       H  0.75935981  0.95279756  0.58923636     0.05000
H1092       H  0.78885413  0.97926809  0.61491681    -0.00800
H1093       H  0.79331369  0.97750594  0.56601330     0.00700
H1094       H  0.65625071  0.08858409  0.59871256     0.04400
H1095       H  0.65932603  0.08516873  0.54939009     0.06300
H1096       H  0.69017342  0.11122404  0.57360401     0.07200
C1097       C  0.94566768  0.09975199  0.75062728    -0.22500
C1098       C  0.97172346  0.07624516  0.75881296     0.09500
C1099       C  0.99144475  0.06122704  0.73026962     0.09900
C1100       C  0.98410037  0.06966553  0.69409132    -0.17400
C1101       C  0.95799477  0.09326449  0.68581125    -0.27800
C1102       C  0.93839946  0.10846349  0.71463669     0.18200
C1103       C  0.97808918  0.06829859  0.79760648     0.12200
C1104       C  0.02055459  0.03669964  0.73804999    -0.12100
H1105       H  0.99926108  0.05823051  0.67214554     0.12500
C1106       C  0.90870885  0.13304038  0.70887630    -0.23000
H1107       H  0.93060814  0.11124562  0.77261770     0.08100
C1108       C  0.00187728  0.08771126  0.81855161     0.04500
C1109       C  0.00698370  0.07954904  0.85517556    -0.20200
C1110       C  0.98857965  0.05258951  0.87161995    -0.12500
C1111       C  0.96422371  0.03348502  0.85074955     0.13200
C1112       C  0.95926114  0.04160134  0.81397580    -0.22900
C1113       C  0.02234246  0.11669862  0.80200469    -0.06000
H1114       H  0.02600038  0.09394485  0.87097658     0.14700
C1115       C  0.94460853  0.00377017  0.86671875    -0.16200
H1116       H  0.94089237  0.02688373  0.79777111     0.09000
H1117       H  0.91690605  0.15748966  0.72012297     0.06900
H1118       H  0.88375741  0.12432073  0.72329309     0.08100
H1119       H  0.90157465  0.13629127  0.68011130     0.07100
H1120       H  0.00876957  0.01505539  0.75290596     0.02000
H1121       H  0.04167063  0.04859034  0.75486605     0.02500
H1122       H  0.03368045  0.02759180  0.71271565     0.06000
H1123       H  0.03981194  0.12931389  0.82208648     0.05000
H1124       H  0.00308340  0.13510564  0.79158826    -0.00800
H1125       H  0.03979267  0.10802753  0.77925492     0.00700
H1126       H  0.92666588  0.01169792  0.88940423     0.04400
H1127       H  0.96438568  0.98573007  0.87694795     0.06300
H1128       H  0.92765275  0.99096652  0.84632432     0.07200
C1129       C  0.54881604  0.49272121  0.55247964    -0.22500
C1130       C  0.54497724  0.49626324  0.51501671     0.09500
C1131       C  0.56201246  0.52307657  0.49692465     0.09900
C1132       C  0.58234521  0.54601594  0.51699374    -0.17400
C1133       C  0.58471605  0.54388585  0.55517339    -0.27800
C1134       C  0.56824187  0.51609144  0.57294709     0.18200
C1135       C  0.52270213  0.47134326  0.49575073     0.12200
C1136       C  0.55767209  0.52811473  0.45672850    -0.12100
H1137       H  0.59561842  0.56640186  0.50270049     0.12500
C1138       C  0.56939751  0.51081745  0.61333172    -0.23000
H1139       H  0.53593079  0.47159978  0.56587224     0.08100
C1140       C  0.53819514  0.44242440  0.48127849     0.04500
C1141       C  0.51564036  0.41756623  0.46728535    -0.20200
C1142       C  0.47789658  0.42046421  0.46837568    -0.12500
C1143       C  0.46234414  0.44975454  0.48208608     0.13200
C1144       C  0.48506714  0.47503740  0.49543212    -0.22900
C1145       C  0.57836653  0.43713978  0.48202449    -0.06000
H1146       H  0.52745605  0.39511219  0.45653292     0.14700
C1147       C  0.42198039  0.45361368  0.48468940    -0.16200
H1148       H  0.47343084  0.49723478  0.50699002     0.09000
H1149       H  0.59674366  0.50309685  0.62116956     0.06900
H1150       H  0.55062017  0.49059965  0.62236267     0.08100
H1151       H  0.56123314  0.53356553  0.62788711     0.07100
H1152       H  0.52864227  0.53110096  0.45064502     0.02000
H1153       H  0.56809342  0.50643760  0.44157135     0.02500
H1154       H  0.57253843  0.55057555  0.44684890     0.06000
H1155       H  0.58585312  0.41288911  0.47003570     0.05000
H1156       H  0.58768078  0.43764392  0.51047828    -0.00800
H1157       H  0.59271767  0.45693942  0.46635901     0.00700
H1158       H  0.41452995  0.47735321  0.49787730     0.04400
H1159       H  0.40982194  0.43301995  0.50100686     0.06300
H1160       H  0.41025601  0.45342112  0.45723851     0.07200
C1161       C  0.56159331  0.71116237  0.56003966    -0.22500
C1162       C  0.58936221  0.73231499  0.54791938     0.09500
C1163       C  0.62496133  0.72084176  0.54605038     0.09900
C1164       C  0.63212723  0.68831362  0.55692805    -0.17400
C1165       C  0.60467794  0.66686750  0.57095489    -0.27800
C1166       C  0.56840659  0.67868485  0.57130495     0.18200
C1167       C  0.58104164  0.76749933  0.54154214     0.12200
C1168       C  0.65557398  0.74324095  0.53323407    -0.12100
H1169       H  0.65960625  0.68044689  0.55419293     0.12500
C1170       C  0.53558227  0.65871903  0.58366383    -0.23000
H1171       H  0.53424734  0.72041513  0.56147538     0.08100
C1172       C  0.57025963  0.77951318  0.50753933     0.04500
C1173       C  0.56281793  0.81343690  0.50362455    -0.20200
C1174       C  0.56655367  0.83545812  0.53291640    -0.12500
C1175       C  0.57635271  0.82281930  0.56725732     0.13200
C1176       C  0.58339451  0.78904501  0.57101559    -0.22900
C1177       C  0.56699729  0.75658218  0.47554613    -0.06000
H1178       H  0.55500204  0.82293402  0.47743985     0.14700
C1179       C  0.57890575  0.84445934  0.60040440    -0.16200
H1180       H  0.59116601  0.77929513  0.59712879     0.09000
H1181       H  0.51550556  0.65813623  0.56164414     0.06900
H1182       H  0.52314995  0.67075603  0.60780773     0.08100
H1183       H  0.54086955  0.63274047  0.59072394     0.07100
H1184       H  0.65754272  0.76523958  0.55119931     0.02000
H1185       H  0.65072032  0.75159201  0.50507368     0.02500
H1186       H  0.68194663  0.73049890  0.53351140     0.06000
H1187       H  0.55820006  0.76991902  0.45093325     0.05000
H1188       H  0.54685626  0.73664187  0.48183612    -0.00800
H1189       H  0.59351617  0.74522145  0.46940273     0.00700
H1190       H  0.58320602  0.82971331  0.62538729     0.04400
H1191       H  0.55357249  0.85849687  0.60431613     0.06300
H1192       H  0.60228804  0.86168028  0.59729753     0.07200
C1193       C  0.83062334  0.57221119  0.58316364    -0.22500
C1194       C  0.80919087  0.55393607  0.60790322     0.09500
C1195       C  0.82476543  0.52808509  0.62777503     0.09900
C1196       C  0.86135071  0.52044363  0.62166271    -0.17400
C1197       C  0.88275973  0.53813101  0.59610861    -0.27800
C1198       C  0.86706484  0.56454319  0.57675242     0.18200
C1199       C  0.76989983  0.56080642  0.60998088     0.12200
C1200       C  0.80254705  0.50831432  0.65493495    -0.12100
H1201       H  0.87309910  0.50004144  0.63627789     0.12500
C1202       C  0.88769441  0.58338844  0.54756957    -0.23000
H1203       H  0.81829617  0.59184415  0.56778603     0.08100
C1204       C  0.75608678  0.58737800  0.63049455     0.04500
C1205       C  0.71954156  0.59567595  0.62737340    -0.20200
C1206       C  0.69645233  0.57800752  0.60418506    -0.12500
C1207       C  0.71010405  0.55049778  0.58474323     0.13200
C1208       C  0.74659481  0.54220930  0.58810313    -0.22900
C1209       C  0.78002879  0.60710378  0.65532758    -0.06000
H1210       H  0.70904691  0.61655861  0.64251545     0.14700
C1211       C  0.68791941  0.53035887  0.55868158    -0.16200
H1212       H  0.75737835  0.52186134  0.57228176     0.09000
H1213       H  0.87058725  0.60191560  0.53401302     0.06900
H1214       H  0.89766218  0.56596913  0.52650174     0.08100
H1215       H  0.91073971  0.59699688  0.55958212     0.07100
H1216       H  0.77991543  0.49550996  0.64109041     0.02000
H1217       H  0.79140148  0.52511505  0.67602473     0.02500
H1218       H  0.81889420  0.48928174  0.66859673     0.06000
H1219       H  0.76496046  0.62701905  0.66949141     0.05000
H1220       H  0.80257448  0.61882250  0.63949545    -0.00800
H1221       H  0.79126948  0.59045498  0.67616120     0.00700
H1222       H  0.70103157  0.53107020  0.53137315     0.04400
H1223       H  0.66028770  0.53955421  0.55569459     0.06300
H1224       H  0.68615093  0.50422845  0.56812656     0.07200
C1225       C  0.55078038  0.58055962  0.72441420    -0.22500
C1226       C  0.57781423  0.57033969  0.74775369     0.09500
C1227       C  0.61332874  0.56612377  0.73413342     0.09900
C1228       C  0.62122076  0.57329146  0.69748827    -0.17400
C1229       C  0.59448508  0.58496111  0.67441813    -0.27800
C1230       C  0.55863150  0.58815133  0.68795034     0.18200
C1231       C  0.56786233  0.56304771  0.78607279     0.12200
C1232       C  0.64284476  0.55431240  0.75834199    -0.12100
H1233       H  0.64857027  0.57066287  0.68703305     0.12500
C1234       C  0.52832693  0.59909195  0.66418084    -0.23000
H1235       H  0.52345993  0.58301554  0.73500497     0.08100
C1236       C  0.56886343  0.58766813  0.81324709     0.04500
C1237       C  0.56069682  0.57890805  0.84947640    -0.20200
C1238       C  0.55152834  0.54605902  0.85893263    -0.12500
C1239       C  0.54789083  0.52207238  0.83098918     0.13200
C1240       C  0.55631843  0.53090103  0.79501779    -0.22900
C1241       C  0.57897911  0.62299077  0.80396994    -0.06000
H1242       H  0.56289928  0.59744705  0.87061143     0.14700
C1243       C  0.53461697  0.48718787  0.83858732    -0.16200
H1244       H  0.55444009  0.51248260  0.77370643     0.09000
H1245       H  0.53207340  0.62554883  0.65686777     0.06900
H1246       H  0.50166845  0.59658023  0.67826975     0.08100
H1247       H  0.52744328  0.58379308  0.63921458     0.07100
H1248       H  0.63556274  0.52945425  0.76943755     0.02000
H1249       H  0.64649094  0.57194710  0.78112344     0.02500
H1250       H  0.66903794  0.55238643  0.74340605     0.06000
H1251       H  0.57798104  0.63924320  0.82825288     0.05000
H1252       H  0.55989614  0.63277937  0.78382727    -0.00800
H1253       H  0.60679618  0.62413071  0.79229622     0.00700
H1254       H  0.52947789  0.47327137  0.81316587     0.04400
H1255       H  0.50891167  0.48773038  0.85452831     0.06300
H1256       H  0.55522581  0.47338790  0.85358058     0.07200
loop_ 
_geom_bond_atom_site_label_1 
_geom_bond_atom_site_label_2 
_geom_bond_distance 
_geom_bond_site_symmetry_2 
_ccdc_geom_bond_type 
C1            C2   1.548       .  S
C1            C7   1.534       .  S
C1            C5   1.532       .  S
C1         C1165   1.541       .  S
C2            H9   1.080       .  S
C2            C3   1.363       .  D
C3            C4   1.538       .  S
C3         C1206   1.488       .  S
C4            C8   1.545       .  S
C4            C6   1.552       .  S
C4           H10   1.103       .  S
C5           H11   1.086       .  S
C5            C6   1.369       .  D
C6         C1133   1.506       .  S
C7           H12   1.086       .  S
C7            C8   1.363       .  D
C8         C1229   1.486       .  S
C13          C14   1.538       .  S
C13          C19   1.549       .  S
C13          C17   1.535       .  S
C13        C1037   1.546       .  S
C14          H21   1.086       .  S
C14          C15   1.366       .  D
C15          C16   1.545       .  S
C15        C1101   1.490       .  S
C16          C20   1.541       .  S
C16          C18   1.546       .  S
C16          H22   1.111       .  S
C17          H23   1.086       .  S
C17          C18   1.365       .  D
C18        C1014   1.489       .  S
C19          H24   1.080       .  S
C19          C20   1.365       .  D
C20        C1069   1.491       .  S
C25          C26   1.540       .  S
C25          C31   1.544       .  S
C25          C29   1.540       .  S
C25         C982   1.545       .  S
C26          H33   1.086       .  S
C26          C27   1.366       .  D
C27          C28   1.542       .  S
C27         C941   1.489       .  S
C28          C32   1.539       .  S
C28          C30   1.544       .  S
C28          H34   1.107       .  S
C29          H35   1.086       .  S
C29          C30   1.367       .  D
C30         C886   1.495       .  S
C31          H36   1.080       .  S
C31          C32   1.361       .  D
C32         C909   1.482       .  S
C37          C38   1.545       .  S
C37          C43   1.536       .  S
C37          C41   1.545       .  S
C37         C781   1.550       .  S
C38          H45   1.084       .  S
C38          C39   1.370       .  D
C39          C40   1.542       .  S
C39         C854   1.493       .  S
C40          C44   1.543       .  S
C40          C42   1.535       .  S
C40          H46   1.108       .  S
C41          H47   1.083       .  S
C41          C42   1.365       .  D
C42        C1142   1.483       .  S
C43          H48   1.086       .  S
C43          C44   1.367       .  D
C44         C813   1.494       .  S
C49          C50   1.546       .  S
C49          C55   1.538       .  S
C49          C53   1.539       .  S
C49         C726   1.547       .  S
C50          H57   1.083       .  S
C50          C51   1.361       .  D
C51          C52   1.536       .  S
C51         C694   1.479       .  S
C52          C56   1.543       .  S
C52          C54   1.536       .  S
C52          H58   1.108       .  S
C53          H59   1.086       .  S
C53          C54   1.368       .  D
C54         C653   1.485       .  S
C55          H60   1.086       .  S
C55          C56   1.370       .  D
C56         C749   1.496       .  S
C61          C62   1.533       .  S
C61          C67   1.536       .  S
C61          C65   1.548       .  S
C61         C630   1.541       .  S
C62          H69   1.087       .  S
C62          C63   1.366       .  D
C63          C64   1.545       .  S
C63         C589   1.494       .  S
C64          C68   1.544       .  S
C64          C66   1.542       .  S
C64          H70   1.111       .  S
C65          H71   1.080       .  S
C65          C66   1.367       .  D
C66         C877   1.489       .  S
C67          H72   1.085       .  S
C67          C68   1.363       .  D
C68         C566   1.486       .  S
C73          C74   1.536       .  S
C73          C79   1.537       .  S
C73          C77   1.544       .  S
C73         C461   1.541       .  S
C74          H81   1.084       .  S
C74          C75   1.366       .  D
C75          C76   1.540       .  S
C75         C534   1.489       .  S
C76          C80   1.541       .  S
C76          C78   1.537       .  S
C76          H82   1.109       .  S
C77          H83   1.081       .  S
C77          C78   1.363       .  D
C78         C662   1.484       .  S
C79          H84   1.086       .  S
C79          C80   1.366       .  D
C80         C502   1.485       .  S
C85          C86   1.549       .  S
C85          C91   1.538       .  S
C85          C89   1.539       .  S
C85         C406   1.547       .  S
C86          H93   1.081       .  S
C86          C87   1.360       .  D
C87          C88   1.535       .  S
C87         C374   1.483       .  S
C88          C92   1.541       .  S
C88          C90   1.543       .  S
C88          H94   1.111       .  S
C89          H95   1.086       .  S
C89          C90   1.369       .  D
C90        C1005   1.491       .  S
C91          H96   1.086       .  S
C91          C92   1.368       .  D
C92         C438   1.488       .  S
Zr97         O98   2.439       .  S
Zr97         O99   2.456   1_556  S
Zr97        O100   2.475   1_556  S
Zr97        O103   2.471       .  S
Zr97        O105   2.388   1_556  S
Zr97        O106   2.391   1_655  S
Zr97        O107   2.413   1_546  S
Zr97        O108   2.402   1_645  S
O98         H154   0.989       .  S
O98         H162   0.990       .  S
O99         C119   1.287       .  A
O100        C121   1.291   1_545  A
O101       Zr111   2.419       .  S
O101        C120   1.282   1_455  A
O102       Zr110   2.407   1_655  S
O102        C121   1.281       .  A
O103        C120   1.291       .  A
O104       Zr112   2.390       .  S
O104        C119   1.277   1_455  A
O105       Zr110   2.395   1_645  S
O105       Zr112   2.377   1_655  S
O106       Zr111   2.397       .  S
O106       Zr112   2.379   1_556  S
O106        H141   0.968       .  S
O107       Zr110   2.410   1_655  S
O107       Zr127   2.382   1_654  S
O107        H144   0.965       .  S
O108       Zr111   2.393   1_565  S
O108       Zr127   2.386       .  S
Zr109       O134   2.441       .  S
Zr109       O128   2.450       .  S
Zr109       O136   2.451       .  S
Zr109       O124   2.455       .  S
Zr109       O115   2.397   1_565  S
Zr109       O116   2.413       .  S
Zr109       O117   2.382       .  S
Zr109       O118   2.391   1_554  S
Zr110       O129   2.437   1_455  S
Zr110       O122   2.436   1_465  S
Zr110       O123   2.436       .  S
Zr110       O116   2.391       .  S
Zr110       O117   2.395       .  S
Zr111       O113   2.436   1_545  S
Zr111       O135   2.440       .  S
Zr111       O137   2.426       .  S
Zr111       O115   2.379   1_556  S
Zr111       O118   2.398   1_545  S
Zr112       O138   2.434       .  S
Zr112       O139   2.436       .  S
Zr112       O114   2.439       .  S
Zr112       O115   2.377       .  S
Zr112       O116   2.387   1_545  S
O113        H150   0.990       .  S
O114        H145   0.990       .  S
O114        H159   0.990       .  S
O116        H142   0.964   1_565  S
O117       Zr127   2.387   1_554  S
O118       Zr127   2.385       .  S
O118        H143   0.967       .  S
C119        C621   1.489       .  S
C120       C1110   1.487       .  S
C121        C758   1.492       .  S
O122        H158   0.990   1_545  S
O123        C125   1.284       .  A
O124        C125   1.286       .  A
C125        C429   1.477       .  S
O126       Zr127   2.436   1_655  S
O126        H155   0.990       .  S
Zr127       O130   2.436   1_456  S
Zr127       O131   2.438       .  S
Zr127       O132   2.396       .  S
O128        C133   1.285       .  A
O129        H146   0.990       .  S
O129        H161   0.991       .  S
O130        H147   0.990       .  S
O131        H151   0.990       .  S
O131        H160   0.990       .  S
O132        C133   1.277   1_556  A
C133        C973   1.472   1_554  S
O134        H153   0.991       .  S
O134        H157   0.990       .  S
O135        H149   0.990       .  S
O135        H156   0.990       .  S
O136        C140   1.287   1_564  A
O137        C140   1.283       .  A
O138        H148   0.990       .  S
O139        H152   0.990       .  S
C140        C525   1.477       .  S
Zr163       O164   2.437       .  S
Zr163       O165   2.439       .  S
Zr163       O166   2.456       .  S
Zr163       O169   2.478       .  S
Zr163       O171   2.388       .  S
Zr163       O172   2.390   1_545  S
Zr163       O173   2.414       .  S
Zr163       O174   2.396       .  S
O164        H220   0.989       .  S
O164        H228   0.989       .  S
O165        C185   1.283       .  A
O166        C187   1.287       .  A
O167       Zr177   2.410       .  S
O167        C186   1.282   1_565  A
O168       Zr176   2.431       .  S
O168        C187   1.284       .  A
O169        C186   1.292       .  A
O170       Zr178   2.414       .  S
O170        C185   1.280   1_565  A
O171       Zr176   2.398       .  S
O171       Zr178   2.381   1_545  S
O172       Zr177   2.394       .  S
O172       Zr178   2.383       .  S
O172        H207   0.966       .  S
O173       Zr176   2.402       .  S
O173       Zr193   2.384       .  S
O173        H210   0.963       .  S
O174       Zr177   2.384   1_545  S
O174       Zr193   2.381       .  S
Zr175       O200   2.442       .  S
Zr175       O194   2.457       .  S
Zr175       O202   2.456       .  S
Zr175       O190   2.459       .  S
Zr175       O181   2.408       .  S
Zr175       O182   2.417       .  S
Zr175       O183   2.384       .  S
Zr175       O184   2.392       .  S
Zr176       O195   2.437       .  S
Zr176       O188   2.435       .  S
Zr176       O189   2.428   1_545  S
Zr176       O182   2.403   1_545  S
Zr176       O183   2.399   1_545  S
Zr177       O179   2.436       .  S
Zr177       O201   2.437       .  S
Zr177       O203   2.416       .  S
Zr177       O181   2.384       .  S
Zr177       O184   2.398       .  S
Zr178       O204   2.437       .  S
Zr178       O205   2.435       .  S
Zr178       O180   2.437       .  S
Zr178       O181   2.390       .  S
Zr178       O182   2.390       .  S
O179        H216   0.990       .  S
O180        H211   0.990       .  S
O180        H225   0.989       .  S
O182        H208   0.966       .  S
O183       Zr193   2.381   1_565  S
O184       Zr193   2.382   1_565  S
O184        H209   0.967       .  S
C185        C493   1.481       .  S
C186       C1078   1.504       .  S
C187        C790   1.485       .  S
O188        H224   0.990       .  S
O189        C191   1.283       .  A
O190        C191   1.288       .  A
C191        C365   1.493       .  S
O192       Zr193   2.436       .  S
O192        H221   0.990       .  S
Zr193       O196   2.435       .  S
Zr193       O197   2.437   1_545  S
Zr193       O198   2.403   1_545  S
O194        C199   1.287       .  A
O195        H212   0.990       .  S
O195        H227   0.990       .  S
O196        H213   0.989       .  S
O197        H217   0.990       .  S
O197        H226   0.990       .  S
O198        C199   1.277       .  A
C199        C685   1.493       .  S
O200        H219   0.991       .  S
O200        H223   0.990       .  S
O201        H215   0.989       .  S
O201        H222   0.990       .  S
O202        C206   1.288       .  A
O203        C206   1.281       .  A
O204        H214   0.990       .  S
O205        H218   0.990       .  S
C206       C1174   1.483       .  S
Zr229       O230   2.442       .  S
Zr229       O231   2.468       .  S
Zr229       O232   2.467       .  S
Zr229       O235   2.451       .  S
Zr229       O237   2.381       .  S
Zr229       O238   2.389       .  S
Zr229       O239   2.414       .  S
Zr229       O240   2.402       .  S
O230        H286   0.990       .  S
O230        H294   0.991       .  S
O231        C251   1.290       .  A
O232        C253   1.290       .  A
O233       Zr243   2.412       .  S
O233        C252   1.281       .  A
O234       Zr242   2.416       .  S
O234        C253   1.279       .  A
O235        C252   1.287       .  A
O236       Zr244   2.418       .  S
O236        C251   1.279       .  A
O237       Zr242   2.399       .  S
O237       Zr244   2.380       .  S
O238       Zr243   2.397       .  S
O238       Zr244   2.379       .  S
O238        H273   0.964       .  S
O239       Zr242   2.396       .  S
O239       Zr259   2.397   1_554  S
O239        H276   0.965       .  S
O240       Zr243   2.386       .  S
O240       Zr259   2.379   1_554  S
Zr241       O266   2.442       .  S
Zr241       O260   2.462       .  S
Zr241       O268   2.439       .  S
Zr241       O256   2.454       .  S
Zr241       O247   2.409   1_556  S
Zr241       O248   2.414   1_556  S
Zr241       O249   2.381       .  S
Zr241       O250   2.381       .  S
Zr242       O261   2.435       .  S
Zr242       O254   2.436       .  S
Zr242       O255   2.420       .  S
Zr242       O248   2.398       .  S
Zr242       O249   2.392   1_554  S
Zr243       O245   2.436   1_554  S
Zr243       O267   2.441       .  S
Zr243       O269   2.416   1_554  S
Zr243       O247   2.392       .  S
Zr243       O250   2.387   1_554  S
Zr244       O270   2.435       .  S
Zr244       O271   2.439       .  S
Zr244       O246   2.439       .  S
Zr244       O247   2.395       .  S
Zr244       O248   2.392       .  S
O245        H282   0.990       .  S
O246        H277   0.990       .  S
O246        H291   0.990       .  S
O248        H274   0.965       .  S
O249       Zr259   2.381       .  S
O250       Zr259   2.377       .  S
O250        H275   0.966       .  S
C251        C845   1.505       .  S
C252        C470   1.470       .  S
C253        C598   1.505       .  S
O254        H290   0.990       .  S
O255        C257   1.281       .  A
O256        C257   1.287   1_556  A
C257        C717   1.487       .  S
O258       Zr259   2.435       .  S
O258        H287   0.990       .  S
Zr259       O262   2.435       .  S
Zr259       O263   2.439       .  S
Zr259       O264   2.401       .  S
O260        C265   1.288       .  A
O261        H278   0.990       .  S
O261        H293   0.990       .  S
O262        H279   0.990       .  S
O263        H283   0.990       .  S
O263        H292   0.990       .  S
O264        C265   1.277       .  A
C265       C1238   1.485       .  S
O266        H285   0.991       .  S
O266        H289   0.990       .  S
O267        H281   0.990       .  S
O267        H288   0.989       .  S
O268        C272   1.285       .  A
O269        C272   1.281       .  A
O270        H280   0.990       .  S
O271        H284   0.990       .  S
C272        C918   1.471       .  S
Zr295       O296   2.441   1_455  S
Zr295       O297   2.454       .  S
Zr295       O298   2.463   1_455  S
Zr295       O301   2.440       .  S
Zr295       O303   2.381       .  S
Zr295       O304   2.393       .  S
Zr295       O305   2.417   1_455  S
Zr295       O306   2.408       .  S
O296        H352   0.990       .  S
O296        H360   0.990       .  S
O297        C317   1.285       .  A
O298        C319   1.288       .  A
O299       Zr309   2.434       .  S
O299        C318   1.285       .  A
O300       Zr308   2.439       .  S
O300        C319   1.285       .  A
O301        C318   1.284       .  A
O302       Zr310   2.407       .  S
O302        C317   1.277       .  A
O303       Zr308   2.392   1_455  S
O303       Zr310   2.384       .  S
O304       Zr309   2.400       .  S
O304       Zr310   2.382       .  S
O304        H339   0.965       .  S
O305       Zr308   2.397       .  S
O305       Zr325   2.389       .  S
O305        H342   0.964       .  S
O306       Zr309   2.388       .  S
O306       Zr325   2.385   1_455  S
Zr307       O332   2.436       .  S
Zr307       O326   2.454       .  S
Zr307       O334   2.463       .  S
Zr307       O322   2.458       .  S
Zr307       O313   2.406       .  S
Zr307       O314   2.417       .  S
Zr307       O315   2.385   1_455  S
Zr307       O316   2.389       .  S
Zr308       O327   2.436       .  S
Zr308       O320   2.437       .  S
Zr308       O321   2.418       .  S
Zr308       O314   2.406   1_655  S
Zr308       O315   2.403       .  S
Zr309       O311   2.435       .  S
Zr309       O333   2.436       .  S
Zr309       O335   2.441       .  S
Zr309       O313   2.388       .  S
Zr309       O316   2.399       .  S
Zr310       O336   2.438       .  S
Zr310       O337   2.436       .  S
Zr310       O312   2.437       .  S
Zr310       O313   2.391       .  S
Zr310       O314   2.387       .  S
O311        H348   0.990       .  S
O312        H343   0.991       .  S
O312        H357   0.990       .  S
O314        H340   0.965       .  S
O315       Zr325   2.379       .  S
O316       Zr325   2.381   1_455  S
O316        H341   0.967       .  S
C317        C950   1.480       .  S
C318        C397   1.475       .  S
C319       C1197   1.489       .  S
O320        H356   0.990       .  S
O321        C323   1.283       .  A
O322        C323   1.286   1_455  A
C323       C1046   1.481       .  S
O324       Zr325   2.435       .  S
O324        H353   0.990       .  S
Zr325       O328   2.437       .  S
Zr325       O329   2.437   1_655  S
Zr325       O330   2.408       .  S
O326        C331   1.286       .  A
O327        H344   0.990       .  S
O327        H359   0.990       .  S
O328        H345   0.990       .  S
O329        H349   0.990       .  S
O329        H358   0.990       .  S
O330        C331   1.279   1_655  A
C331        C557   1.491       .  S
O332        H351   0.991       .  S
O332        H355   0.989       .  S
O333        H347   0.989       .  S
O333        H354   0.990       .  S
O334        C338   1.289       .  A
O335        C338   1.288       .  A
O336        H346   0.990       .  S
O337        H350   0.990       .  S
C338        C822   1.515       .  S
C361        C362   1.402       .  A
C361        C366   1.408       .  A
C361        H371   1.084       .  S
C362        C367   1.490       .  S
C362        C363   1.412       .  A
C363        C368   1.507       .  S
C363        C364   1.405       .  A
C364        C365   1.407       .  A
C364        H369   1.084       .  S
C365        C366   1.421       .  A
C366        C370   1.508   1_565  S
C367        C372   1.415       .  A
C367        C376   1.403       .  A
C368        H384   1.109       .  S
C368        H385   1.110       .  S
C368        H386   1.111       .  S
C370        H381   1.111       .  S
C370        H382   1.110       .  S
C370        H383   1.109       .  S
C372        C377   1.507       .  S
C372        C373   1.406       .  A
C373        C374   1.401       .  A
C373        H378   1.084       .  S
C374        C375   1.416       .  A
C375        C379   1.509       .  S
C375        C376   1.406       .  A
C376        H380   1.084       .  S
C377        H387   1.111       .  S
C377        H388   1.109       .  S
C377        H389   1.111       .  S
C379        H390   1.108       .  S
C379        H391   1.109       .  S
C379        H392   1.111       .  S
C393        C394   1.400       .  A
C393        C398   1.402       .  A
C393        H403   1.084       .  S
C394        C399   1.482       .  S
C394        C395   1.412       .  A
C395        C400   1.506       .  S
C395        C396   1.407       .  A
C396        C397   1.404       .  A
C396        H401   1.084       .  S
C397        C398   1.413       .  A
C398        C402   1.507       .  S
C399        C404   1.404       .  A
C399        C408   1.398       .  A
C400        H416   1.110       .  S
C400        H417   1.110       .  S
C400        H418   1.111       .  S
C402        H413   1.108       .  S
C402        H414   1.111       .  S
C402        H415   1.111       .  S
C404        C409   1.509       .  S
C404        C405   1.401       .  A
C405        C406   1.417       .  A
C405        H410   1.075       .  S
C406        C407   1.430       .  A
C407        C411   1.510       .  S
C407        C408   1.408       .  A
C408        H412   1.085       .  S
C409        H419   1.111       .  S
C409        H420   1.110       .  S
C409        H421   1.110       .  S
C411        H422   1.111       .  S
C411        H423   1.103       .  S
C411        H424   1.110       .  S
C425        C426   1.401       .  A
C425        C430   1.404       .  A
C425        H435   1.084       .  S
C426        C431   1.489       .  S
C426        C427   1.416       .  A
C427        C432   1.506       .  S
C427        C428   1.409       .  A
C428        C429   1.402       .  A
C428        H433   1.084       .  S
C429        C430   1.413       .  A
C430        C434   1.507       .  S
C431        C436   1.412       .  A
C431        C440   1.404       .  A
C432        H448   1.109       .  S
C432        H449   1.111       .  S
C432        H450   1.111       .  S
C434        H445   1.111   1_565  S
C434        H446   1.110   1_565  S
C434        H447   1.111       .  S
C436        C441   1.506       .  S
C436        C437   1.405       .  A
C437        C438   1.403       .  A
C437        H442   1.083       .  S
C438        C439   1.415       .  A
C439        C443   1.507       .  S
C439        C440   1.407       .  A
C440        H444   1.084       .  S
C441        H451   1.111       .  S
C441        H452   1.109       .  S
C441        H453   1.110       .  S
C443        H454   1.111       .  S
C443        H455   1.108       .  S
C443        H456   1.111       .  S
C457        C458   1.397       .  A
C457        C462   1.404       .  A
C457        H467   1.085       .  S
C458        C463   1.478       .  S
C458        C459   1.404   1_556  A
C459        C464   1.509       .  S
C459        C460   1.401   1_554  A
C460        C461   1.416       .  A
C460        H465   1.075   1_556  S
C461        C462   1.429       .  A
C462        C466   1.511       .  S
C463        C468   1.411       .  A
C463        C472   1.400   1_556  A
C464        H480   1.110       .  S
C464        H481   1.109       .  S
C464        H482   1.111       .  S
C466        H477   1.110       .  S
C466        H478   1.111       .  S
C466        H479   1.102       .  S
C468        C473   1.507       .  S
C468        C469   1.404       .  A
C469        C470   1.404   1_556  A
C469        H474   1.084       .  S
C470        C471   1.414       .  A
C471        C475   1.508       .  S
C471        C472   1.400       .  A
C472        H476   1.085       .  S
C473        H483   1.111       .  S
C473        H484   1.110       .  S
C473        H485   1.109       .  S
C475        H486   1.110       .  S
C475        H487   1.108       .  S
C475        H488   1.110       .  S
C489        C490   1.401       .  A
C489        C494   1.405       .  A
C489        H499   1.084       .  S
C490        C495   1.480       .  S
C490        C491   1.409       .  A
C491        C496   1.506       .  S
C491        C492   1.403       .  A
C492        C493   1.405       .  A
C492        H497   1.084   1_545  S
C493        C494   1.417       .  A
C494        C498   1.507       .  S
C495        C500   1.408       .  A
C495        C504   1.402       .  A
C496        H512   1.110       .  S
C496        H513   1.110       .  S
C496        H514   1.111   1_545  S
C498        H509   1.111       .  S
C498        H510   1.111       .  S
C498        H511   1.108       .  S
C500        C505   1.506       .  S
C500        C501   1.401       .  A
C501        C502   1.406       .  A
C501        H506   1.084       .  S
C502        C503   1.416       .  A
C503        C507   1.506       .  S
C503        C504   1.404       .  A
C504        H508   1.085       .  S
C505        H515   1.111       .  S
C505        H516   1.110       .  S
C505        H517   1.110       .  S
C507        H518   1.111       .  S
C507        H519   1.103       .  S
C507        H520   1.110       .  S
C521        C522   1.402       .  A
C521        C526   1.405       .  A
C521        H531   1.084       .  S
C522        C527   1.483       .  S
C522        C523   1.411   1_556  A
C523        C528   1.506       .  S
C523        C524   1.405       .  A
C524        C525   1.404   1_554  A
C524        H529   1.084       .  S
C525        C526   1.414       .  A
C526        C530   1.507   1_545  S
C527        C532   1.410       .  A
C527        C536   1.400       .  A
C528        H544   1.110       .  S
C528        H545   1.109       .  S
C528        H546   1.111       .  S
C530        H541   1.110       .  S
C530        H542   1.111       .  S
C530        H543   1.109   1_565  S
C532        C537   1.506       .  S
C532        C533   1.405       .  A
C533        C534   1.406       .  A
C533        H538   1.084       .  S
C534        C535   1.418       .  A
C535        C539   1.509       .  S
C535        C536   1.405       .  A
C536        H540   1.084       .  S
C537        H547   1.111   1_556  S
C537        H548   1.110   1_545  S
C537        H549   1.110   1_556  S
C539        H550   1.111       .  S
C539        H551   1.110       .  S
C539        H552   1.107       .  S
C553        C554   1.404   1_455  A
C553        C558   1.410       .  A
C553        H563   1.084       .  S
C554        C559   1.483       .  S
C554        C555   1.408       .  A
C555        C560   1.508       .  S
C555        C556   1.400       .  A
C556        C557   1.409   1_655  A
C556        H561   1.084       .  S
C557        C558   1.419       .  A
C558        C562   1.507       .  S
C559        C564   1.411       .  A
C559        C568   1.400       .  A
C560        H576   1.110       .  S
C560        H577   1.111       .  S
C560        H578   1.110       .  S
C562        H573   1.111       .  S
C562        H574   1.109       .  S
C562        H575   1.111       .  S
C564        C569   1.505   1_655  S
C564        C565   1.405       .  A
C565        C566   1.403       .  A
C565        H570   1.084       .  S
C566        C567   1.419       .  A
C567        C571   1.508       .  S
C567        C568   1.403       .  A
C568        H572   1.084       .  S
C569        H579   1.111       .  S
C569        H580   1.110       .  S
C569        H581   1.111       .  S
C571        H582   1.106       .  S
C571        H583   1.110       .  S
C571        H584   1.111       .  S
C585        C586   1.401       .  A
C585        C590   1.408       .  A
C585        H595   1.084       .  S
C586        C591   1.484       .  S
C586        C587   1.409       .  A
C587        C592   1.508       .  S
C587        C588   1.401       .  A
C588        C589   1.407       .  A
C588        H593   1.084       .  S
C589        C590   1.422       .  A
C590        C594   1.505       .  S
C591        C596   1.409       .  A
C591        C600   1.396       .  A
C592        H608   1.110       .  S
C592        H609   1.109       .  S
C592        H610   1.111       .  S
C594        H605   1.110       .  S
C594        H606   1.110       .  S
C594        H607   1.097       .  S
C596        C601   1.507       .  S
C596        C597   1.406       .  A
C597        C598   1.411       .  A
C597        H602   1.083       .  S
C598        C599   1.430       .  A
C599        C603   1.509       .  S
C599        C600   1.406       .  A
C600        H604   1.084       .  S
C601        H611   1.111       .  S
C601        H612   1.110       .  S
C601        H613   1.109       .  S
C603        H614   1.111       .  S
C603        H615   1.110       .  S
C603        H616   1.108       .  S
C617        C618   1.403       .  A
C617        C622   1.409       .  A
C617        H627   1.084       .  S
C618        C623   1.480       .  S
C618        C619   1.407       .  A
C619        C624   1.510       .  S
C619        C620   1.396       .  A
C620        C621   1.410       .  A
C620        H625   1.084   1_655  S
C621        C622   1.418       .  A
C622        C626   1.506   1_554  S
C623        C628   1.405       .  A
C623        C632   1.395       .  A
C624        H640   1.109       .  S
C624        H641   1.111   1_655  S
C624        H642   1.111   1_655  S
C626        H637   1.111       .  S
C626        H638   1.110       .  S
C626        H639   1.111       .  S
C628        C633   1.508       .  S
C628        C629   1.403       .  A
C629        C630   1.415       .  A
C629        H634   1.074       .  S
C630        C631   1.432       .  A
C631        C635   1.511       .  S
C631        C632   1.402       .  A
C632        H636   1.085       .  S
C633        H643   1.110   1_554  S
C633        H644   1.110   1_554  S
C633        H645   1.110   1_655  S
C635        H646   1.110       .  S
C635        H647   1.100       .  S
C635        H648   1.111       .  S
C649        C650   1.399       .  A
C649        C654   1.402       .  A
C649        H659   1.084   1_565  S
C650        C655   1.476   1_565  S
C650        C651   1.408       .  A
C651        C656   1.506       .  S
C651        C652   1.401       .  A
C652        C653   1.406       .  A
C652        H657   1.084       .  S
C653        C654   1.418       .  A
C654        C658   1.506       .  S
C655        C660   1.407       .  A
C655        C664   1.403   1_554  A
C656        H672   1.110       .  S
C656        H673   1.109       .  S
C656        H674   1.111       .  S
C658        H669   1.107       .  S
C658        H670   1.111       .  S
C658        H671   1.107       .  S
C660        C665   1.508       .  S
C660        C661   1.398       .  A
C661        C662   1.406   1_554  A
C661        H666   1.084       .  S
C662        C663   1.414       .  A
C663        C667   1.507       .  S
C663        C664   1.407       .  A
C664        H668   1.084   1_545  S
C665        H675   1.111       .  S
C665        H676   1.110       .  S
C665        H677   1.109       .  S
C667        H678   1.111       .  S
C667        H679   1.110       .  S
C667        H680   1.107       .  S
C681        C682   1.395       .  A
C681        C686   1.400       .  A
C681        H691   1.085       .  S
C682        C687   1.483       .  S
C682        C683   1.412       .  A
C683        C688   1.505       .  S
C683        C684   1.410       .  A
C684        C685   1.409       .  A
C684        H689   1.084       .  S
C685        C686   1.424       .  A
C686        C690   1.509       .  S
C687        C692   1.412       .  A
C687        C696   1.403       .  A
C688        H704   1.110       .  S
C688        H705   1.111       .  S
C688        H706   1.111       .  S
C690        H701   1.111   1_565  S
C690        H702   1.109   1_565  S
C690        H703   1.110   1_565  S
C692        C697   1.506       .  S
C692        C693   1.406       .  A
C693        C694   1.404       .  A
C693        H698   1.084       .  S
C694        C695   1.412       .  A
C695        C699   1.506       .  S
C695        C696   1.403       .  A
C696        H700   1.084       .  S
C697        H707   1.111       .  S
C697        H708   1.110       .  S
C697        H709   1.110       .  S
C699        H710   1.111       .  S
C699        H711   1.108       .  S
C699        H712   1.110       .  S
C713        C714   1.400       .  A
C713        C718   1.405       .  A
C713        H723   1.084       .  S
C714        C719   1.483       .  S
C714        C715   1.409       .  A
C715        C720   1.506       .  S
C715        C716   1.404       .  A
C716        C717   1.407       .  A
C716        H721   1.084       .  S
C717        C718   1.420       .  A
C718        C722   1.508       .  S
C719        C724   1.406       .  A
C719        C728   1.395       .  A
C720        H736   1.110       .  S
C720        H737   1.110       .  S
C720        H738   1.111       .  S
C722        H733   1.111       .  S
C722        H734   1.110   1_554  S
C722        H735   1.109       .  S
C724        C729   1.508       .  S
C724        C725   1.402       .  A
C725        C726   1.414       .  A
C725        H730   1.077       .  S
C726        C727   1.433       .  A
C727        C731   1.508       .  S
C727        C728   1.407       .  A
C728        H732   1.085   1_554  S
C729        H739   1.111       .  S
C729        H740   1.110       .  S
C729        H741   1.110       .  S
C731        H742   1.111   1_554  S
C731        H743   1.097       .  S
C731        H744   1.111   1_554  S
C745        C746   1.396       .  A
C745        C750   1.399       .  A
C745        H755   1.085       .  S
C746        C751   1.482       .  S
C746        C747   1.410       .  A
C747        C752   1.505       .  S
C747        C748   1.410       .  A
C748        C749   1.408       .  A
C748        H753   1.083       .  S
C749        C750   1.422       .  A
C750        C754   1.505       .  S
C751        C756   1.407       .  A
C751        C760   1.404       .  A
C752        H768   1.110       .  S
C752        H769   1.109       .  S
C752        H770   1.111       .  S
C754        H765   1.110       .  S
C754        H766   1.111       .  S
C754        H767   1.100       .  S
C756        C761   1.509       .  S
C756        C757   1.399       .  A
C757        C758   1.410       .  A
C757        H762   1.084       .  S
C758        C759   1.417   1_565  A
C759        C763   1.505       .  S
C759        C760   1.411   1_545  A
C760        H764   1.084   1_565  S
C761        H771   1.111       .  S
C761        H772   1.110       .  S
C761        H773   1.109       .  S
C763        H774   1.107       .  S
C763        H775   1.111       .  S
C763        H776   1.111       .  S
C777        C778   1.399       .  A
C777        C782   1.408       .  A
C777        H787   1.085       .  S
C778        C783   1.487       .  S
C778        C779   1.405       .  A
C779        C784   1.508       .  S
C779        C780   1.406       .  A
C780        C781   1.418       .  A
C780        H785   1.077       .  S
C781        C782   1.429       .  A
C782        C786   1.509       .  S
C783        C788   1.412       .  A
C783        C792   1.399       .  A
C784        H800   1.110       .  S
C784        H801   1.110       .  S
C784        H802   1.110       .  S
C786        H797   1.110       .  S
C786        H798   1.111       .  S
C786        H799   1.103       .  S
C788        C793   1.506       .  S
C788        C789   1.408       .  A
C789        C790   1.406       .  A
C789        H794   1.084       .  S
C790        C791   1.418       .  A
C791        C795   1.507       .  S
C791        C792   1.404       .  A
C792        H796   1.084       .  S
C793        H803   1.111       .  S
C793        H804   1.110       .  S
C793        H805   1.110       .  S
C795        H806   1.111       .  S
C795        H807   1.110       .  S
C795        H808   1.107       .  S
C809        C810   1.404       .  A
C809        C814   1.411       .  A
C809        H819   1.084       .  S
C810        C815   1.492       .  S
C810        C811   1.412       .  A
C811        C816   1.506       .  S
C811        C812   1.405       .  A
C812        C813   1.405       .  A
C812        H817   1.084       .  S
C813        C814   1.416       .  A
C814        C818   1.505       .  S
C815        C820   1.408       .  A
C815        C824   1.399       .  A
C816        H832   1.110       .  S
C816        H833   1.110       .  S
C816        H834   1.111       .  S
C818        H829   1.108       .  S
C818        H830   1.111       .  S
C818        H831   1.108       .  S
C820        C825   1.506       .  S
C820        C821   1.408       .  A
C821        C822   1.415       .  A
C821        H826   1.083       .  S
C822        C823   1.428       .  A
C823        C827   1.503       .  S
C823        C824   1.410       .  A
C824        H828   1.084       .  S
C825        H835   1.111       .  S
C825        H836   1.110       .  S
C825        H837   1.110       .  S
C827        H838   1.111       .  S
C827        H839   1.110       .  S
C827        H840   1.109       .  S
C841        C842   1.397       .  A
C841        C846   1.406       .  A
C841        H851   1.085       .  S
C842        C847   1.489       .  S
C842        C843   1.410       .  A
C843        C848   1.505       .  S
C843        C844   1.410       .  A
C844        C845   1.411       .  A
C844        H849   1.083       .  S
C845        C846   1.429       .  A
C846        C850   1.510       .  S
C847        C852   1.412       .  A
C847        C856   1.402       .  A
C848        H864   1.110       .  S
C848        H865   1.110       .  S
C848        H866   1.111       .  S
C850        H861   1.110       .  S
C850        H862   1.111       .  S
C850        H863   1.110       .  S
C852        C857   1.506       .  S
C852        C853   1.407       .  A
C853        C854   1.406       .  A
C853        H858   1.084       .  S
C854        C855   1.417       .  A
C855        C859   1.507       .  S
C855        C856   1.408       .  A
C856        H860   1.084       .  S
C857        H867   1.111       .  S
C857        H868   1.110       .  S
C857        H869   1.110       .  S
C859        H870   1.111       .  S
C859        H871   1.108       .  S
C859        H872   1.107       .  S
C873        C874   1.400       .  A
C873        C878   1.403       .  A
C873        H883   1.085       .  S
C874        C879   1.488       .  S
C874        C875   1.412   1_455  A
C875        C880   1.505       .  S
C875        C876   1.408       .  A
C876        C877   1.404       .  A
C876        H881   1.084       .  S
C877        C878   1.419   1_655  A
C878        C882   1.508       .  S
C879        C884   1.411       .  A
C879        C888   1.401   1_554  A
C880        H896   1.110       .  S
C880        H897   1.110       .  S
C880        H898   1.111       .  S
C882        H893   1.111       .  S
C882        H894   1.110       .  S
C882        H895   1.107       .  S
C884        C889   1.506       .  S
C884        C885   1.406       .  A
C885        C886   1.406   1_554  A
C885        H890   1.084       .  S
C886        C887   1.418       .  A
C887        C891   1.505       .  S
C887        C888   1.407       .  A
C888        H892   1.084       .  S
C889        H899   1.110       .  S
C889        H900   1.110       .  S
C889        H901   1.111       .  S
C891        H902   1.106       .  S
C891        H903   1.109       .  S
C891        H904   1.111       .  S
C905        C906   1.402       .  A
C905        C910   1.404       .  A
C905        H915   1.084       .  S
C906        C911   1.480       .  S
C906        C907   1.409       .  A
C907        C912   1.507       .  S
C907        C908   1.401       .  A
C908        C909   1.405       .  A
C908        H913   1.084       .  S
C909        C910   1.414       .  A
C910        C914   1.505       .  S
C911        C916   1.412       .  A
C911        C920   1.401       .  A
C912        H928   1.110       .  S
C912        H929   1.110       .  S
C912        H930   1.111       .  S
C914        H925   1.110   1_556  S
C914        H926   1.110       .  S
C914        H927   1.104       .  S
C916        C921   1.507   1_556  S
C916        C917   1.401       .  A
C917        C918   1.401       .  A
C917        H922   1.085   1_556  S
C918        C919   1.416       .  A
C919        C923   1.507       .  S
C919        C920   1.404       .  A
C920        H924   1.084       .  S
C921        H931   1.111       .  S
C921        H932   1.110       .  S
C921        H933   1.110   1_554  S
C923        H934   1.110       .  S
C923        H935   1.108       .  S
C923        H936   1.111       .  S
C937        C938   1.402       .  A
C937        C942   1.406       .  A
C937        H947   1.084       .  S
C938        C943   1.484       .  S
C938        C939   1.409       .  A
C939        C944   1.506       .  S
C939        C940   1.403       .  A
C940        C941   1.406       .  A
C940        H945   1.084       .  S
C941        C942   1.416       .  A
C942        C946   1.505       .  S
C943        C948   1.412       .  A
C943        C952   1.401       .  A
C944        H960   1.110       .  S
C944        H961   1.110       .  S
C944        H962   1.111       .  S
C946        H957   1.111       .  S
C946        H958   1.107       .  S
C946        H959   1.107       .  S
C948        C953   1.506       .  S
C948        C949   1.405       .  A
C949        C950   1.403       .  A
C949        H954   1.084       .  S
C950        C951   1.416       .  A
C951        C955   1.507       .  S
C951        C952   1.405       .  A
C952        H956   1.084       .  S
C953        H963   1.111       .  S
C953        H964   1.110       .  S
C953        H965   1.110       .  S
C955        H966   1.108       .  S
C955        H967   1.110   1_455  S
C955        H968   1.111       .  S
C969        C970   1.402   1_554  A
C969        C974   1.405       .  A
C969        H979   1.084       .  S
C970        C975   1.481       .  S
C970        C971   1.410       .  A
C971        C976   1.507       .  S
C971        C972   1.401       .  A
C972        C973   1.403       .  A
C972        H977   1.085       .  S
C973        C974   1.416   1_556  A
C974        C978   1.509       .  S
C975        C980   1.403       .  A
C975        C984   1.396       .  A
C976        H992   1.110       .  S
C976        H993   1.110       .  S
C976        H994   1.111       .  S
C978        H989   1.110       .  S
C978        H990   1.111       .  S
C978        H991   1.107       .  S
C980        C985   1.508       .  S
C980        C981   1.404       .  A
C981        C982   1.419       .  A
C981        H986   1.073       .  S
C982        C983   1.430       .  A
C983        C987   1.512       .  S
C983        C984   1.403       .  A
C984        H988   1.085       .  S
C985        H995   1.111       .  S
C985        H996   1.110   1_556  S
C985        H997   1.111       .  S
C987        H998   1.111       .  S
C987        H999   1.101       .  S
C987       H1000   1.111       .  S
C1001      C1002   1.400       .  A
C1001      C1006   1.404       .  A
C1001      H1011   1.085       .  S
C1002      C1007   1.487   1_565  S
C1002      C1003   1.413       .  A
C1003      C1008   1.507   1_565  S
C1003      C1004   1.407       .  A
C1004      C1005   1.405       .  A
C1004      H1009   1.084       .  S
C1005      C1006   1.419       .  A
C1006      C1010   1.508       .  S
C1007      C1012   1.414   1_455  A
C1007      C1016   1.401       .  A
C1008      H1024   1.110       .  S
C1008      H1025   1.108       .  S
C1008      H1026   1.111       .  S
C1010      H1021   1.110       .  S
C1010      H1022   1.111       .  S
C1010      H1023   1.107       .  S
C1012      C1017   1.507   1_545  S
C1012      C1013   1.407       .  A
C1013      C1014   1.403       .  A
C1013      H1018   1.084       .  S
C1014      C1015   1.417   1_655  A
C1015      C1019   1.507       .  S
C1015      C1016   1.406       .  A
C1016      H1020   1.084       .  S
C1017      H1027   1.111       .  S
C1017      H1028   1.110       .  S
C1017      H1029   1.108       .  S
C1019      H1030   1.111       .  S
C1019      H1031   1.111       .  S
C1019      H1032   1.106       .  S
C1033      C1034   1.395       .  A
C1033      C1038   1.403       .  A
C1033      H1043   1.085   1_655  S
C1034      C1039   1.482       .  S
C1034      C1035   1.404       .  A
C1035      C1040   1.508       .  S
C1035      C1036   1.404       .  A
C1036      C1037   1.418       .  A
C1036      H1041   1.073       .  S
C1037      C1038   1.431       .  A
C1038      C1042   1.511   1_655  S
C1039      C1044   1.410       .  A
C1039      C1048   1.403       .  A
C1040      H1056   1.110       .  S
C1040      H1057   1.110       .  S
C1040      H1058   1.111       .  S
C1042      H1053   1.111       .  S
C1042      H1054   1.111       .  S
C1042      H1055   1.100       .  S
C1044      C1049   1.508       .  S
C1044      C1045   1.401       .  A
C1045      C1046   1.405       .  A
C1045      H1050   1.084       .  S
C1046      C1047   1.415       .  A
C1047      C1051   1.506       .  S
C1047      C1048   1.407       .  A
C1048      H1052   1.084       .  S
C1049      H1059   1.111       .  S
C1049      H1060   1.110       .  S
C1049      H1061   1.110       .  S
C1051      H1062   1.107   1_655  S
C1051      H1063   1.110       .  S
C1051      H1064   1.111       .  S
C1065      C1066   1.400       .  A
C1065      C1070   1.405       .  A
C1065      H1075   1.085       .  S
C1066      C1071   1.485       .  S
C1066      C1067   1.410       .  A
C1067      C1072   1.506       .  S
C1067      C1068   1.405       .  A
C1068      C1069   1.406       .  A
C1068      H1073   1.084       .  S
C1069      C1070   1.418       .  A
C1070      C1074   1.502       .  S
C1071      C1076   1.406       .  A
C1071      C1080   1.401       .  A
C1072      H1088   1.110       .  S
C1072      H1089   1.110       .  S
C1072      H1090   1.111       .  S
C1074      H1085   1.110       .  S
C1074      H1086   1.110       .  S
C1074      H1087   1.098       .  S
C1076      C1081   1.507   1_545  S
C1076      C1077   1.403   1_545  A
C1077      C1078   1.414   1_565  A
C1077      H1082   1.083       .  S
C1078      C1079   1.423       .  A
C1079      C1083   1.504       .  S
C1079      C1080   1.409       .  A
C1080      H1084   1.084       .  S
C1081      H1091   1.111       .  S
C1081      H1092   1.110       .  S
C1081      H1093   1.110       .  S
C1083      H1094   1.108       .  S
C1083      H1095   1.110       .  S
C1083      H1096   1.111       .  S
C1097      C1098   1.399       .  A
C1097      C1102   1.404       .  A
C1097      H1107   1.085       .  S
C1098      C1103   1.489       .  S
C1098      C1099   1.413       .  A
C1099      C1104   1.505   1_655  S
C1099      C1100   1.408       .  A
C1100      C1101   1.404       .  A
C1100      H1105   1.084       .  S
C1101      C1102   1.421       .  A
C1102      C1106   1.509       .  S
C1103      C1108   1.411   1_655  A
C1103      C1112   1.404       .  A
C1104      H1120   1.110       .  S
C1104      H1121   1.110       .  S
C1104      H1122   1.111       .  S
C1106      H1117   1.110       .  S
C1106      H1118   1.110       .  S
C1106      H1119   1.106       .  S
C1108      C1113   1.506       .  S
C1108      C1109   1.406       .  A
C1109      C1110   1.406   1_455  A
C1109      H1114   1.084       .  S
C1110      C1111   1.416       .  A
C1111      C1115   1.506       .  S
C1111      C1112   1.410       .  A
C1112      H1116   1.084       .  S
C1113      H1123   1.111       .  S
C1113      H1124   1.110       .  S
C1113      H1125   1.110       .  S
C1115      H1126   1.110       .  S
C1115      H1127   1.111   1_545  S
C1115      H1128   1.111   1_545  S
C1129      C1130   1.398       .  A
C1129      C1134   1.406       .  A
C1129      H1139   1.084       .  S
C1130      C1135   1.481       .  S
C1130      C1131   1.406       .  A
C1131      C1136   1.507       .  S
C1131      C1132   1.404       .  A
C1132      C1133   1.415       .  A
C1132      H1137   1.083       .  S
C1133      C1134   1.422       .  A
C1134      C1138   1.505       .  S
C1135      C1140   1.409       .  A
C1135      C1144   1.404       .  A
C1136      H1152   1.110       .  S
C1136      H1153   1.109       .  S
C1136      H1154   1.111       .  S
C1138      H1149   1.107       .  S
C1138      H1150   1.111       .  S
C1138      H1151   1.107       .  S
C1140      C1145   1.507       .  S
C1140      C1141   1.400       .  A
C1141      C1142   1.404       .  A
C1141      H1146   1.084       .  S
C1142      C1143   1.412       .  A
C1143      C1147   1.507       .  S
C1143      C1144   1.407       .  A
C1144      H1148   1.084       .  S
C1145      H1155   1.111       .  S
C1145      H1156   1.110       .  S
C1145      H1157   1.109       .  S
C1147      H1158   1.111       .  S
C1147      H1159   1.110       .  S
C1147      H1160   1.108       .  S
C1161      C1162   1.394       .  A
C1161      C1166   1.402       .  A
C1161      H1171   1.085       .  S
C1162      C1167   1.476       .  S
C1162      C1163   1.405       .  A
C1163      C1168   1.508       .  S
C1163      C1164   1.402       .  A
C1164      C1165   1.415       .  A
C1164      H1169   1.074       .  S
C1165      C1166   1.432       .  A
C1166      C1170   1.511       .  S
C1167      C1172   1.410       .  A
C1167      C1176   1.395       .  A
C1168      H1184   1.110       .  S
C1168      H1185   1.110       .  S
C1168      H1186   1.111       .  S
C1170      H1181   1.110       .  S
C1170      H1182   1.111       .  S
C1170      H1183   1.101       .  S
C1172      C1177   1.505       .  S
C1172      C1173   1.408       .  A
C1173      C1174   1.406       .  A
C1173      H1178   1.084       .  S
C1174      C1175   1.419       .  A
C1175      C1179   1.506       .  S
C1175      C1176   1.398       .  A
C1176      H1180   1.085       .  S
C1177      H1187   1.111       .  S
C1177      H1188   1.110       .  S
C1177      H1189   1.110       .  S
C1179      H1190   1.111       .  S
C1179      H1191   1.111       .  S
C1179      H1192   1.106       .  S
C1193      C1194   1.400       .  A
C1193      C1198   1.405       .  A
C1193      H1203   1.084       .  S
C1194      C1199   1.486       .  S
C1194      C1195   1.410       .  A
C1195      C1200   1.505       .  S
C1195      C1196   1.409       .  A
C1196      C1197   1.407       .  A
C1196      H1201   1.084       .  S
C1197      C1198   1.419       .  A
C1198      C1202   1.507       .  S
C1199      C1204   1.410       .  A
C1199      C1208   1.402       .  A
C1200      H1216   1.110       .  S
C1200      H1217   1.110       .  S
C1200      H1218   1.111       .  S
C1202      H1213   1.111       .  S
C1202      H1214   1.110       .  S
C1202      H1215   1.107       .  S
C1204      C1209   1.505       .  S
C1204      C1205   1.406       .  A
C1205      C1206   1.407       .  A
C1205      H1210   1.084       .  S
C1206      C1207   1.417       .  A
C1207      C1211   1.506       .  S
C1207      C1208   1.405       .  A
C1208      H1212   1.085       .  S
C1209      H1219   1.111       .  S
C1209      H1220   1.110       .  S
C1209      H1221   1.110       .  S
C1211      H1222   1.110       .  S
C1211      H1223   1.101       .  S
C1211      H1224   1.110       .  S
C1225      C1226   1.398       .  A
C1225      C1230   1.403       .  A
C1225      H1235   1.084       .  S
C1226      C1231   1.482       .  S
C1226      C1227   1.413       .  A
C1227      C1232   1.506       .  S
C1227      C1228   1.406       .  A
C1228      C1229   1.403       .  A
C1228      H1233   1.084       .  S
C1229      C1230   1.418       .  A
C1230      C1234   1.507       .  S
C1231      C1236   1.412       .  A
C1231      C1240   1.396       .  A
C1232      H1248   1.110       .  S
C1232      H1249   1.110       .  S
C1232      H1250   1.111       .  S
C1234      H1245   1.106       .  S
C1234      H1246   1.111       .  S
C1234      H1247   1.109       .  S
C1236      C1241   1.505       .  S
C1236      C1237   1.408       .  A
C1237      C1238   1.405       .  A
C1237      H1242   1.084       .  S
C1238      C1239   1.421       .  A
C1239      C1243   1.508       .  S
C1239      C1240   1.402       .  A
C1240      H1244   1.084       .  S
C1241      H1251   1.111       .  S
C1241      H1252   1.110       .  S
C1241      H1253   1.110       .  S
C1243      H1254   1.111       .  S
C1243      H1255   1.111       .  S
C1243      H1256   1.107       .  S
