geometry optimzed in LAMMPS
_audit_creation_date              2020-11-30 
_audit_creation_method            'lammps2cif' 
_symmetry_space_group_name_H-M    'P1' 
_symmetry_Int_Tables_number       1 
_symmetry_cell_setting            triclinic 
loop_ 
_symmetry_equiv_pos_as_xyz 
  x,y,z 
_cell_length_a                    37.59074746 
_cell_length_b                    64.12529210381378 
_cell_length_c                    27.539738355011455 
_cell_angle_alpha                 89.44159762034677 
_cell_angle_beta                  89.9153059954004 
_cell_angle_gamma                 90.07512640576766 
loop_ 
_atom_site_label 
_atom_site_type_symbol 
_atom_site_fract_x 
_atom_site_fract_y 
_atom_site_fract_z 
_atom_site_charge 
N1          N  0.50082582  0.53136450  0.00564833    -0.35700
N2          N  0.55759932  0.50069052  0.01492134    -0.56300
N3          N  0.50357075  0.46861497  0.01314561    -0.35700
N4          N  0.44697896  0.49923562  0.00785023    -0.56300
C5          C  0.52901654  0.54360575  0.01629995     0.27900
C6          C  0.47116806  0.54287857  0.01295870     0.27900
C7          C  0.53260065  0.45733979  0.02558182     0.27900
C8          C  0.47476949  0.45665711  0.02312016     0.27900
C9          C  0.57758831  0.51774151  0.00552518     0.36500
C10         C  0.57898079  0.48403163  0.00866823     0.36500
C11         C  0.42591988  0.51559139  0.99672304     0.36500
C12         C  0.42736482  0.48194657  0.00062771     0.36500
C13         C  0.51716104  0.56311132  0.03039683    -0.21000
C14         C  0.48073371  0.56268499  0.02813872    -0.21000
C15         C  0.52208366  0.43802047  0.04368591    -0.21000
C16         C  0.48563098  0.43765009  0.04243688    -0.21000
C17         C  0.61210517  0.51195598  0.99417569    -0.22000
C18         C  0.61299091  0.49049373  0.99619224    -0.22000
C19         C  0.39253563  0.50873418  0.98278960    -0.22000
C20         C  0.39349405  0.48730161  0.98507625    -0.22000
C21         C  0.56518933  0.53840030  0.00913928    -0.17400
C22         C  0.43585326  0.53653270  0.00305218    -0.17400
C23         C  0.43920293  0.46155332  0.01085099    -0.18200
C24         C  0.56829414  0.46321392  0.01668136    -0.17400
H25         H  0.53314975  0.57645639  0.04030786     0.15500
H26         H  0.46339738  0.57568813  0.03594383     0.15500
H27         H  0.53886587  0.42527512  0.05561410     0.15500
H28         H  0.46903803  0.42460009  0.05327638     0.15500
H29         H  0.63427340  0.52212311  0.98550769     0.13800
H30         H  0.63597307  0.48078113  0.98949917     0.13800
H31         H  0.36983375  0.51817785  0.97266616     0.13800
H32         H  0.37165817  0.47689147  0.97696300     0.13800
H33         H  0.50201246  0.51709256  0.98829025     0.27100
H34         H  0.50362640  0.48226174  0.99263281     0.27100
N35         N  0.00195167  0.03165432  0.99441460    -0.35700
N36         N  0.05564642  0.99933426  0.99564255    -0.56300
N37         N  0.99946952  0.96938645  0.98416004    -0.35700
N38         N  0.94559337  0.00172315  0.98052049    -0.56300
C39         C  0.03185755  0.04300040  0.98710918     0.27900
C40         C  0.97410803  0.04406148  0.98297720     0.27900
C41         C  0.02857190  0.95747415  0.97650704     0.27900
C42         C  0.97120224  0.95883086  0.96654229     0.27900
C43         C  0.07628878  0.01566434  0.00764969     0.36500
C44         C  0.07477968  0.98198894  0.00495985     0.36500
C45         C  0.92549148  0.01834693  0.99209057     0.36500
C46         C  0.92425979  0.98488371  0.98410825     0.36500
C47         C  0.02277841  0.06283826  0.97064014    -0.21000
C48         C  0.98635487  0.06347923  0.96797828    -0.21000
C49         C  0.01876320  0.93923848  0.95345295    -0.21000
C50         C  0.98262668  0.94003959  0.94732541    -0.21000
C51         C  0.10901254  0.00872183  0.02435718    -0.22000
C52         C  0.10797220  0.98725581  0.02289509    -0.22000
C53         C  0.89095588  0.01215440  0.00239920    -0.22000
C54         C  0.89012674  0.99082498  0.99710466    -0.22000
C55         C  0.06677132  0.03661798  0.99935098    -0.17400
C56         C  0.93793961  0.03902963  0.99054783    -0.17400
C57         C  0.93514430  0.96449959  0.97293584    -0.17400
C58         C  0.06328297  0.96173447  0.99343651    -0.17400
H59         H  0.04039138  0.07577955  0.96265627     0.15500
H60         H  0.97061247  0.07689109  0.95737631     0.15500
H61         H  0.03576837  0.92640452  0.94315816     0.15500
H62         H  0.96668380  0.92776664  0.93177708     0.15500
H63         H  0.13141987  0.01812561  0.03556067     0.13800
H64         H  0.12940754  0.97678182  0.03266076     0.13800
H65         H  0.86871809  0.02197069  0.01216455     0.13800
H66         H  0.86709858  0.98087393  0.00200802     0.13800
H67         H  0.00031163  0.01739301  0.01281227     0.27100
H68         H  0.99825661  0.98237036  0.00652525     0.27100
O69         O  0.30833563  0.26667194  0.04030430    -0.87400
C70         C  0.20879947  0.26717861  0.09511091     0.88600
Mg71       Mg  0.31922856  0.27696970  0.96780867     1.58100
O72         O  0.24021146  0.21752817  0.06546607    -0.87200
O73         O  0.31475746  0.23829699  0.08464473    -0.74500
C74         C  0.19667454  0.23033681  0.83179007     0.93600
O75         O  0.24451082  0.29813379  0.01745604    -0.74300
O76         O  0.21642598  0.24650959  0.83153500    -0.81800
Mg77       Mg  0.27699804  0.28722486  0.08388043     1.58000
C78         C  0.18070212  0.17557850  0.99205822     0.93600
O79         O  0.30912469  0.27914714  0.15313683    -0.80100
H80         H  0.27733841  0.19546567  0.07328447    -0.05400
C81         C  0.17718030  0.24488332  0.96385011     0.88500
O82         O  0.31975667  0.24312663  0.94128737    -0.74600
O83         O  0.24063267  0.26230363  0.09612006    -0.87400
O84         O  0.17834391  0.18704054  0.02945042    -0.80200
C85         C  0.18102266  0.21930850  0.16894950     0.93700
C86         C  0.30861926  0.26598323  0.18817110     0.93500
Mg87       Mg  0.22867567  0.21022532  0.93724554     1.58000
O88         O  0.19640141  0.21761611  0.86775734    -0.80100
O89         O  0.26091089  0.19978633  0.00380776    -0.74300
O90         O  0.21099612  0.22862665  0.17169803    -0.80200
O91         O  0.31341986  0.31468780  0.06980128    -0.81900
O92         O  0.29204485  0.26963418  0.84804143    -0.80200
C93         C  0.25971986  0.20377349  0.04889256     0.88000
O94         O  0.26426264  0.23547104  0.92437057    -0.87300
O95         O  0.19634694  0.23078363  0.98003099    -0.87400
O96         O  0.18905829  0.25879051  0.93493615    -0.74500
Mg97       Mg  0.26181823  0.23386832  0.12549861     1.58000
O98         O  0.16965307  0.21195044  0.12912913    -0.81900
H99         H  0.35418687  0.25092694  0.04336080    -0.05600
O100        O  0.26322972  0.27998753  0.95525561    -0.87100
H101        H  0.22642434  0.30231916  0.94863502    -0.05400
H102        H  0.30422979  0.21565916  0.91207129    -0.05600
C103        C  0.24432026  0.29389507  0.97241758     0.87900
C104        C  0.32700360  0.25218762  0.05586322     0.88500
C105        C  0.29623093  0.23086513  0.92468086     0.88600
H106        H  0.14988068  0.24582501  0.97603186    -0.05600
O107        O  0.18512474  0.25505315  0.07836172    -0.74600
Mg108      Mg  0.24190378  0.26355126  0.89461407     1.58000
H109        H  0.20106327  0.28250174  0.10725638    -0.05600
C110        C  0.32319941  0.32226159  0.02905869     0.93600
O111        O  0.33301611  0.28644002  0.89094086    -0.81800
C112        C  0.32165153  0.27929976  0.85089021     0.93600
O113        O  0.28831321  0.25008608  0.18836798    -0.81800
Mg114      Mg  0.18433757  0.22112472  0.05230232     1.58200
O115        O  0.32319050  0.31139644  0.99050213    -0.80200
O116        O  0.19378278  0.18220224  0.95216089    -0.81900
O117        O  0.80945877  0.23608607  0.97973590    -0.87400
C118        C  0.71149884  0.23121344  0.92025609     0.88600
Mg119      Mg  0.82143215  0.22590542  0.05253083     1.58100
O120        O  0.73745342  0.28184217  0.95120553    -0.87200
O121        O  0.81406494  0.26373974  0.93258686    -0.74500
C122        C  0.68969605  0.26627018  0.18545322     0.93600
O123        O  0.74991374  0.20217928  0.00032250    -0.74300
O124        O  0.71186930  0.25121345  0.18837491    -0.81800
Mg125      Mg  0.78235245  0.21444292  0.93466454     1.58000
C126        C  0.67299848  0.32062847  0.02707980     0.93600
O127        O  0.81550554  0.22452798  0.86719872    -0.80100
H128        H  0.77350428  0.30474007  0.94705161    -0.05400
C129        C  0.67650750  0.25104850  0.05264307     0.88500
O130        O  0.81761080  0.25948144  0.07926168    -0.74600
O131        O  0.74267916  0.23741592  0.92002914    -0.87400
O132        O  0.67245292  0.30990843  0.98829345    -0.80200
C133        C  0.67931036  0.27934252  0.84669935     0.93700
C134        C  0.81329803  0.23668163  0.83027684     0.93500
Mg135      Mg  0.72289453  0.28738372  0.08114481     1.58000
O136        O  0.68951094  0.27852252  0.14870709    -0.80100
O137        O  0.75535396  0.29915221  0.01536575    -0.74300
O138        O  0.71020343  0.27115112  0.84275729    -0.80200
O139        O  0.82230180  0.18882121  0.94995028    -0.81900
O140        O  0.79268881  0.23173020  0.17287494    -0.80200
C141        C  0.75571120  0.29571850  0.96991074     0.88000
O142        O  0.76108626  0.26409818  0.09549699    -0.87300
O143        O  0.69437486  0.26583525  0.03670426    -0.87400
O144        O  0.68913594  0.23794705  0.08297538    -0.74500
Mg145      Mg  0.76113581  0.26651069  0.89045146     1.58000
O146        O  0.66686959  0.28487553  0.88762324    -0.81900
H147        H  0.85382839  0.25329322  0.97632869    -0.05600
O148        O  0.76589224  0.22001049  0.06476928    -0.87100
H149        H  0.73068541  0.19662313  0.06815430    -0.05400
H150        H  0.79783326  0.28583857  0.10907202    -0.05600
C151        C  0.74845746  0.20584327  0.04570289     0.87900
C152        C  0.82700207  0.25092315  0.96338808     0.88500
C153        C  0.79224475  0.27034353  0.09594897     0.88600
H154        H  0.64971015  0.24888768  0.03939374    -0.05600
O155        O  0.68630993  0.24221917  0.93705872    -0.74600
Mg156      Mg  0.74167139  0.23535456  0.12540294     1.58000
H157        H  0.70570300  0.21570138  0.90739208    -0.05600
C158        C  0.83207047  0.18134211  0.99073789     0.93600
O159        O  0.83618257  0.21710257  0.13006438    -0.81800
C160        C  0.82378447  0.22372626  0.17017246     0.93600
O161        O  0.78938925  0.25072538  0.82717827    -0.81800
Mg162      Mg  0.68192393  0.27587776  0.96438654     1.58200
O163        O  0.82982061  0.19180272  0.02974607    -0.80200
O164        O  0.68522411  0.31346528  0.06672340    -0.81900
O165        O  0.69235183  0.73559889  0.01933887    -0.87400
C166        C  0.79209718  0.73272261  0.07589158     0.88600
Mg167      Mg  0.67980493  0.72573304  0.94771499     1.58100
O168        O  0.76512037  0.78319813  0.04319321    -0.87200
O169        O  0.68867256  0.76431488  0.06183800    -0.74500
C170        C  0.80663058  0.76785365  0.81149832     0.93600
O171        O  0.75401604  0.70280763  0.99723543    -0.74300
O172        O  0.78402767  0.75309276  0.80966693    -0.81800
Mg173      Mg  0.72248365  0.71435705  0.06340741     1.58000
C174        C  0.82914688  0.82243336  0.96531442     0.93600
O175        O  0.69067167  0.72300814  0.13228408    -0.80100
H176        H  0.73128945  0.80701084  0.05025675    -0.05400
C177        C  0.82445091  0.75265403  0.94355759     0.88500
O178        O  0.68210186  0.75970987  0.92053929    -0.74600
O179        O  0.76067064  0.73841544  0.07479909    -0.87400
O180        O  0.83006072  0.81187083  0.00481770    -0.80200
C181        C  0.82221934  0.78028129  0.14777777     0.93700
C182        C  0.69171190  0.73604873  0.16697418     0.93500
Mg183      Mg  0.77723341  0.78907403  0.91536978     1.58000
O184        O  0.80831193  0.77988647  0.84785156    -0.80100
O185        O  0.74658642  0.80164787  0.98082754    -0.74300
O186        O  0.79180143  0.77142783  0.14975364    -0.80200
O187        O  0.68432487  0.68776320  0.05035381    -0.81900
O188        O  0.70601143  0.73288765  0.82718677    -0.80200
C189        C  0.74748100  0.79779215  0.02613244     0.88000
O190        O  0.73838175  0.76544115  0.90431304    -0.87300
O191        O  0.80756732  0.76771628  0.95937517    -0.87400
O192        O  0.81070945  0.73970113  0.91426626    -0.74500
Mg193      Mg  0.74138399  0.76726041  0.10318056     1.58000
O194        O  0.83513209  0.78733787  0.10805058    -0.81900
H195        H  0.64819707  0.75291622  0.02129232    -0.05600
O196        O  0.73514330  0.72092553  0.93429972    -0.87100
H197        H  0.77076168  0.69797059  0.92817353    -0.05400
H198        H  0.70078094  0.78684881  0.89171004    -0.05600
C199        C  0.75358813  0.70677208  0.95189288     0.87900
C200        C  0.67515167  0.75074766  0.03399345     0.88500
C201        C  0.70701569  0.77126810  0.90437539     0.88600
H202        H  0.85140929  0.75014609  0.95590950    -0.05600
O203        O  0.81714093  0.74422233  0.05988324    -0.74600
Mg204      Mg  0.75732228  0.73694105  0.87353777     1.58000
H205        H  0.79831319  0.71728475  0.08950315    -0.05600
C206        C  0.67331818  0.68052152  0.01023598     0.93600
O207        O  0.66460088  0.71682689  0.87157109    -0.81800
C208        C  0.67581715  0.72381034  0.83097406     0.93600
O209        O  0.71316122  0.75144694  0.16651534    -0.81800
Mg210      Mg  0.82074842  0.77790743  0.03102690     1.58200
O211        O  0.67337582  0.69141744  0.97127683    -0.80200
O212        O  0.81600831  0.81515212  0.92655109    -0.81900
O213        O  0.18678584  0.76338276  0.96091454    -0.87400
C214        C  0.28612937  0.76652118  0.90419284     0.88600
Mg215      Mg  0.17555079  0.77348726  0.03308515     1.58100
O216        O  0.25918948  0.71581733  0.93640973    -0.87200
O217        O  0.18319899  0.73469755  0.91803686    -0.74500
C218        C  0.30491420  0.73222835  0.16777955     0.93600
O219        O  0.24830559  0.79688685  0.98111122    -0.74300
O220        O  0.28321301  0.74745934  0.16827558    -0.81800
Mg221      Mg  0.21634214  0.78488455  0.91596790     1.58000
C222        C  0.32249441  0.67630979  0.01324658     0.93600
O223        O  0.18456703  0.77563094  0.84802519    -0.80100
H224        H  0.22330176  0.69288973  0.93159925    -0.05400
C225        C  0.31991410  0.74604642  0.03462320     0.88500
O226        O  0.17811331  0.73979600  0.06184987    -0.74600
O227        O  0.25469112  0.76079494  0.90448232    -0.87400
O228        O  0.32374201  0.68721158  0.97426260    -0.80200
C229        C  0.31807827  0.71946027  0.83205539     0.93700
C230        C  0.18594930  0.76257709  0.81340890     0.93500
Mg231      Mg  0.27219222  0.71004938  0.06561223     1.58000
O232        O  0.30522639  0.71915605  0.13308997    -0.80100
O233        O  0.24009457  0.69826768  0.00033273    -0.74300
O234        O  0.28732670  0.72790456  0.82852698    -0.80200
O235        O  0.17801238  0.81194263  0.92911980    -0.81900
O236        O  0.20488196  0.76756234  0.15293612    -0.80200
C237        C  0.24064601  0.70182633  0.95480141     0.88000
O238        O  0.23446466  0.73407054  0.07774963    -0.87300
O239        O  0.30209452  0.73109996  0.02026190    -0.87400
O240        O  0.30709776  0.75964207  0.06293825    -0.74500
Mg241      Mg  0.23601261  0.73175029  0.87603117     1.58000
O242        O  0.32963346  0.71236791  0.87236630    -0.81900
H243        H  0.14287163  0.74575016  0.95953707    -0.05600
O244        O  0.23120028  0.77826900  0.04422027    -0.87100
H245        H  0.26594778  0.80175529  0.04967862    -0.05400
H246        H  0.19654533  0.71303739  0.09257751    -0.05600
C247        C  0.24880137  0.79275623  0.02635018     0.87900
C248        C  0.16971823  0.74811047  0.94643643     0.88500
C249        C  0.20295957  0.72841566  0.07867274     0.88600
H250        H  0.34680181  0.74798969  0.02133596    -0.05600
O251        O  0.31095821  0.75499972  0.92051702    -0.74600
Mg252      Mg  0.25475302  0.76292302  0.10500493     1.58000
H253        H  0.29253100  0.78201764  0.89103894    -0.05600
C254        C  0.16828542  0.81896055  0.97018543     0.93600
O255        O  0.16212847  0.78291521  0.10979004    -0.81800
C256        C  0.17457966  0.77644726  0.15017360     0.93600
O257        O  0.20774518  0.74740022  0.81327515    -0.81800
Mg258      Mg  0.31466192  0.72121405  0.94880361     1.58200
O259        O  0.16882097  0.80756148  0.00835227    -0.80200
O260        O  0.30927539  0.68323255  0.05239217    -0.81900
C261        C  0.02273262  0.21671908  0.46421790     0.03200
C262        C  0.98568164  0.22060066  0.46489973     0.03200
C263        C  0.96850498  0.22328121  0.50959339    -0.17400
C264        C  0.98706682  0.22194062  0.55368291     0.03200
C265        C  0.02394136  0.21753671  0.55332841     0.03200
C266        C  0.04121810  0.21494109  0.50846395    -0.17400
H267        H  0.06973364  0.21240102  0.50789664     0.05200
H268        H  0.94008065  0.22617868  0.51014209     0.05200
C269        C  0.97735406  0.78409327  0.44531291     0.03200
C270        C  0.01474498  0.78207869  0.44414879     0.03200
C271        C  0.03357321  0.77997605  0.48774465    -0.17400
C272        C  0.01609282  0.77947762  0.53277095     0.03200
C273        C  0.97870690  0.78179802  0.53387242     0.03200
C274        C  0.95991452  0.78433805  0.49027667    -0.17400
H275        H  0.93113578  0.78555071  0.49129206     0.05200
H276        H  0.06231529  0.77856580  0.48648501     0.05200
C277        C  0.51663325  0.72097466  0.44705587     0.03200
C278        C  0.47884482  0.71938431  0.44639479     0.03200
C279        C  0.46039234  0.71794944  0.49099663    -0.17400
C280        C  0.47803584  0.71786603  0.53597547     0.03200
C281        C  0.51552987  0.71931900  0.53639426     0.03200
C282        C  0.53408413  0.72053343  0.49226530    -0.17400
H283        H  0.56290729  0.72117479  0.49333483     0.05200
H284        H  0.43155435  0.71766680  0.49080582     0.05200
C285        C  0.51725783  0.28407384  0.46513976     0.03200
C286        C  0.48000708  0.28088954  0.46676973     0.03200
C287        C  0.46260113  0.28018276  0.51190744    -0.17400
C288        C  0.48118121  0.28244719  0.55564180     0.03200
C289        C  0.51844098  0.28567804  0.55412424     0.03200
C290        C  0.53581040  0.28678945  0.50889938    -0.17400
H291        H  0.56447901  0.28867357  0.50788210     0.05200
H292        H  0.43397093  0.27806177  0.51297039     0.05200
C293        C  0.36627351  0.74487939  0.27341986    -0.27300
C294        C  0.38384115  0.72580515  0.28089804     0.06300
C295        C  0.37499414  0.70881751  0.25125959     0.25900
C296        C  0.34911943  0.71093633  0.21502100    -0.11800
C297        C  0.33125517  0.72996528  0.20773418    -0.25700
C298        C  0.34029263  0.74700927  0.23732588     0.36700
C299        C  0.41016691  0.72350580  0.32090715     0.06300
F300        F  0.39188205  0.69025005  0.25671582    -0.19500
H301        H  0.34307676  0.69761800  0.19258078     0.16200
F302        F  0.32472063  0.76591654  0.23075991    -0.23200
H303        H  0.37240475  0.75813523  0.29602083     0.17900
C304        C  0.43819410  0.73786842  0.32678007     0.25900
C305        C  0.46117653  0.73622706  0.36673665    -0.11800
C306        C  0.45702667  0.72004961  0.40111415    -0.25800
C307        C  0.42966443  0.70531173  0.39414749     0.36900
C308        C  0.40647518  0.70714493  0.35473535    -0.27400
F309        F  0.44336627  0.75346887  0.29385842    -0.19500
H310        H  0.48169763  0.74789556  0.37140323     0.16100
F311        F  0.42502831  0.68920527  0.42591136    -0.23200
H312        H  0.38501352  0.69597323  0.35124402     0.18000
C313        C  0.40147797  0.71634012  0.75384314    -0.27300
C314        C  0.38749519  0.71806972  0.70684819     0.06300
C315        C  0.35049296  0.72008360  0.70095918     0.25900
C316        C  0.32793943  0.72043665  0.74157617    -0.11800
C317        C  0.34182477  0.71847276  0.78879540    -0.25700
C318        C  0.37903083  0.71644165  0.79441579     0.36700
C319        C  0.41160799  0.71771542  0.66414593     0.06300
F320        F  0.33629042  0.72221149  0.65590567    -0.19500
H321        H  0.29958273  0.72221749  0.73605684     0.16200
F322        F  0.39399810  0.71513399  0.83917757    -0.23200
H323        H  0.42991808  0.71481201  0.75909609     0.17900
C324        C  0.43834870  0.73287808  0.65799846     0.25900
C325        C  0.46024018  0.73270832  0.61677162    -0.11800
C326        C  0.45628743  0.71722531  0.58135592    -0.25800
C327        C  0.42984888  0.70186752  0.58808023     0.36900
C328        C  0.40772518  0.70219234  0.62899663    -0.27400
F329        F  0.44239846  0.74829396  0.69097139    -0.19500
H330        H  0.47973994  0.74499690  0.61193385     0.16100
F331        F  0.42541149  0.68651868  0.55502785    -0.23200
H332        H  0.38749966  0.69026813  0.63335490     0.18000
C333        C  0.06420050  0.79971953  0.33129036    -0.27300
C334        C  0.08199384  0.78128520  0.31826566     0.06300
C335        C  0.07576073  0.76297198  0.34559999     0.25900
C336        C  0.05295965  0.76329411  0.38559993    -0.11800
C337        C  0.03537837  0.78167935  0.39852765    -0.25700
C338        C  0.04088102  0.79991309  0.37095813     0.36700
C339        C  0.10673055  0.78113665  0.27613024     0.06300
F340        F  0.09136096  0.74467976  0.33337535    -0.19500
H341        H  0.04912363  0.74916889  0.40688863     0.16200
F342        F  0.02488219  0.81803497  0.38361406    -0.23200
H343        H  0.06891609  0.81409122  0.31131954     0.17900
C344        C  0.09668934  0.79003804  0.23139898     0.25900
C345        C  0.11940696  0.78900728  0.19134686    -0.11800
C346        C  0.15250171  0.77885534  0.19459090    -0.25800
C347        C  0.16280330  0.77018146  0.23967928     0.36900
C348        C  0.14021947  0.77151669  0.27997920    -0.27400
F349        F  0.06418995  0.79891435  0.22566451    -0.19500
H350        H  0.11051097  0.79575109  0.15727644     0.16100
F351        F  0.19417521  0.75993003  0.24478791    -0.23200
H352        H  0.14880374  0.76480191  0.31423990     0.18000
C353        C  0.11869771  0.74924646  0.71673745    -0.27300
C354        C  0.11084149  0.76898170  0.69686690     0.06300
C355        C  0.12809375  0.78665473  0.71587279     0.25900
C356        C  0.15237562  0.78451436  0.75400125    -0.11800
C357        C  0.16069572  0.76474046  0.77286116    -0.25700
C358        C  0.14367292  0.74707679  0.75392097     0.36700
C359        C  0.08503737  0.77096462  0.65620114     0.06300
F360        F  0.12232712  0.80594414  0.69677757    -0.19500
H361        H  0.16525518  0.79828995  0.76819444     0.16200
F362        F  0.15019770  0.72778533  0.77259832    -0.23200
H363        H  0.10519075  0.73545016  0.70382147     0.17900
C364        C  0.08616448  0.75718721  0.61671907     0.25900
C365        C  0.06257010  0.75961668  0.57801984    -0.11800
C366        C  0.03791388  0.77605420  0.57707870    -0.25800
C367        C  0.03670096  0.78982758  0.61646585     0.36900
C368        C  0.05955429  0.78700712  0.65598871    -0.27400
F369        F  0.11107602  0.74192198  0.61432189    -0.19500
H370        H  0.06419327  0.74891562  0.54789292     0.16100
F371        F  0.01487022  0.80664365  0.61576847    -0.23200
H372        H  0.05771816  0.79766223  0.68613938     0.18000
C373        C  0.59541911  0.71305385  0.75095297    -0.27300
C374        C  0.60745169  0.71972570  0.70512081     0.06300
C375        C  0.64259944  0.72724133  0.70068716     0.25900
C376        C  0.66481154  0.72824142  0.74141382    -0.11800
C377        C  0.65264697  0.72171354  0.78743749    -0.25700
C378        C  0.61758203  0.71394837  0.79158278     0.36700
C379        C  0.58279145  0.71956895  0.66278763     0.06300
F380        F  0.65567387  0.73347898  0.65691508    -0.19500
H381        H  0.69155302  0.73426387  0.73686246     0.16200
F382        F  0.60409823  0.70768842  0.83509305    -0.23200
H383        H  0.56833243  0.70763174  0.75571445     0.17900
C384        C  0.56081241  0.70222519  0.65312112     0.25900
C385        C  0.53789880  0.70244552  0.61300354    -0.11800
C386        C  0.53669260  0.71983048  0.58177587    -0.25800
C387        C  0.55803345  0.73725340  0.59185825     0.36900
C388        C  0.58059310  0.73715259  0.63209722    -0.27400
F389        F  0.56237540  0.68477706  0.68133179    -0.19500
H390        H  0.52185921  0.68881566  0.60543326     0.16100
F391        F  0.55697651  0.75441076  0.56262962    -0.23200
H392        H  0.59630344  0.75093453  0.63937539     0.18000
C393        C  0.62833105  0.74916116  0.26963818    -0.27300
C394        C  0.61505260  0.72943149  0.28356622     0.06300
C395        C  0.62769978  0.71178406  0.25854830     0.25900
C396        C  0.65256446  0.71399940  0.22079461    -0.11800
C397        C  0.66633343  0.73368467  0.20805048    -0.25700
C398        C  0.65411632  0.75126398  0.23325554     0.36700
C399        C  0.58870983  0.72754620  0.32443862     0.06300
F400        F  0.61694411  0.69227570  0.27123525    -0.19500
H401        H  0.66152925  0.70020543  0.20198678     0.16200
F402        F  0.66610493  0.77066546  0.22163145    -0.23200
H403        H  0.61845270  0.76318178  0.28651365     0.17900
C404        C  0.59163661  0.74023486  0.36578996     0.25900
C405        C  0.56683231  0.73868892  0.40344257    -0.11800
C406        C  0.53947791  0.72369908  0.40279348    -0.25800
C407        C  0.53694361  0.71058515  0.36223590     0.36900
C408        C  0.56058569  0.71296251  0.32299004    -0.27400
F409        F  0.61943248  0.75353708  0.37126850    -0.19500
H410        H  0.56980390  0.74889229  0.43430345     0.16100
F411        F  0.51272349  0.69489742  0.36124840    -0.23200
H412        H  0.55699876  0.70313197  0.29167564     0.18000
C413        C  0.88415975  0.78831100  0.73639870    -0.27300
C414        C  0.88342221  0.77492377  0.69652774     0.06300
C415        C  0.85674201  0.75960409  0.69382420     0.25900
C416        C  0.83142705  0.75765208  0.73076875    -0.11800
C417        C  0.83228297  0.77089868  0.77113421    -0.25700
C418        C  0.85897672  0.78637457  0.77343139     0.36700
C419        C  0.91028342  0.77712619  0.65761473     0.06300
F420        F  0.85483442  0.74673104  0.65506729    -0.19500
H421        H  0.81130522  0.74562780  0.72786932     0.16200
F422        F  0.86132134  0.79947350  0.81173171    -0.23200
H423        H  0.90467408  0.80011786  0.73921742     0.17900
C424        C  0.91566270  0.79644989  0.63416043     0.25900
C425        C  0.93891381  0.79796546  0.59477182    -0.11800
C426        C  0.95777687  0.78042907  0.57906887    -0.25800
C427        C  0.95348633  0.76129170  0.60352006     0.36900
C428        C  0.92983254  0.75968088  0.64254464    -0.27400
F429        F  0.89720564  0.81361036  0.64781064    -0.19500
H430        H  0.94180880  0.81275865  0.57582387     0.16100
F431        F  0.97081022  0.74400514  0.58814906    -0.23200
H432        H  0.92628483  0.74472599  0.66054484     0.18000
C433        C  0.86165930  0.76771489  0.27117310    -0.27300
C434        C  0.88599264  0.78408812  0.27695792     0.06300
C435        C  0.88861651  0.79959575  0.24069404     0.25900
C436        C  0.86772588  0.79838596  0.19876083    -0.11800
C437        C  0.84335239  0.78196142  0.19287815    -0.25700
C438        C  0.84026004  0.76671604  0.22982534     0.36700
C439        C  0.90956377  0.78435085  0.31990073     0.06300
F440        F  0.91218209  0.81551904  0.24516116    -0.19500
H441        H  0.87058691  0.81029834  0.17086645     0.16200
F442        F  0.81754103  0.75038281  0.22521271    -0.23200
H443        H  0.85935978  0.75561900  0.29874520     0.17900
C444        C  0.90970875  0.80136257  0.35168202     0.25900
C445        C  0.93253973  0.80143288  0.39173884    -0.11800
C446        C  0.95537517  0.78452784  0.40077032    -0.25800
C447        C  0.95438321  0.76723519  0.36985400     0.36900
C448        C  0.93181570  0.76724769  0.32957996    -0.27400
F449        F  0.88692852  0.81753158  0.34488056    -0.19500
H450        H  0.93212255  0.81456613  0.41617988     0.16100
F451        F  0.97407387  0.74999586  0.37978188    -0.23200
H452        H  0.93154479  0.75383689  0.30596156     0.18000
C453        C  0.56341155  0.26163168  0.35467808    -0.27300
C454        C  0.58549352  0.27823955  0.33993944     0.06300
C455        C  0.58310504  0.29729914  0.36471015     0.25900
C456        C  0.55986711  0.29937837  0.40427331    -0.11800
C457        C  0.53827411  0.28263109  0.41945258    -0.25700
C458        C  0.54009129  0.26374803  0.39406420     0.36700
C459        C  0.61205566  0.27522439  0.30037906     0.06300
F460        F  0.60454064  0.31354744  0.35226713    -0.19500
H461        H  0.55928984  0.31393355  0.42389935     0.16200
F462        F  0.52080847  0.24697670  0.40909968    -0.23200
H463        H  0.56479636  0.24682265  0.33619624     0.17900
C464        C  0.63730682  0.25908686  0.30330821     0.25900
C465        C  0.66255976  0.25641070  0.26632400    -0.11800
C466        C  0.66308726  0.26961459  0.22518910    -0.25800
C467        C  0.63724107  0.28561510  0.22205597     0.36900
C468        C  0.61236149  0.28843386  0.25946366    -0.27400
F469        F  0.63800431  0.24612460  0.34254679    -0.19500
H470        H  0.68171526  0.24389906  0.26994603     0.16100
F471        F  0.63552522  0.29846413  0.18266013    -0.23200
H472        H  0.59288904  0.30080440  0.25614223     0.18000
C473        C  0.64771618  0.28537817  0.71564200    -0.27300
C474        C  0.61064167  0.28573460  0.72196138     0.06300
C475        C  0.59651753  0.28450526  0.76906025     0.25900
C476        C  0.61911616  0.28288244  0.80916132    -0.11800
C477        C  0.65630020  0.28201198  0.80317403    -0.25700
C478        C  0.67043858  0.28329696  0.75579805     0.36700
C479        C  0.58659773  0.28617896  0.67944938     0.06300
F480        F  0.56077327  0.28481829  0.77619950    -0.19500
H481        H  0.60736038  0.28180952  0.84503069     0.16200
F482        F  0.70609561  0.28263027  0.74822627    -0.23200
H483        H  0.65899661  0.28618399  0.67945241     0.17900
C484        C  0.58568456  0.30341840  0.64757847     0.25900
C485        C  0.56274972  0.30341480  0.60754136    -0.11800
C486        C  0.54054664  0.28622221  0.59867576    -0.25800
C487        C  0.54174964  0.26892975  0.63037752     0.36900
C488        C  0.56434399  0.26904033  0.67064108    -0.27400
F489        F  0.60670127  0.32027458  0.65542710    -0.19500
H490        H  0.56241481  0.31677855  0.58317742     0.16100
F491        F  0.52221648  0.25159345  0.62124193    -0.23200
H492        H  0.56509178  0.25552013  0.69451055     0.18000
C493        C  0.85934112  0.23123246  0.29877053    -0.27300
C494        C  0.89351141  0.22239915  0.29558090     0.06300
C495        C  0.90406335  0.21364000  0.25113141     0.25900
C496        C  0.88096759  0.21367321  0.21128629    -0.11800
C497        C  0.84687778  0.22266970  0.21423581    -0.25700
C498        C  0.83641575  0.23159169  0.25863934     0.36700
C499        C  0.91786037  0.22223885  0.33849860     0.06300
F500        F  0.93720908  0.20562861  0.24552443    -0.19500
H501        H  0.89020177  0.20692713  0.17765563     0.16200
F502        F  0.80428856  0.24099777  0.26333796    -0.23200
H503        H  0.85017355  0.23782798  0.33258678     0.17900
C504        C  0.92177563  0.23995119  0.36802847     0.25900
C505        C  0.94418547  0.23936284  0.40858886    -0.11800
C506        C  0.96372104  0.22134424  0.42008279    -0.25800
C507        C  0.96018719  0.20372675  0.39060882     0.36900
C508        C  0.93729759  0.20414785  0.35053705    -0.27400
F509        F  0.90447644  0.25798136  0.35735257    -0.19500
H510        H  0.94651012  0.25307279  0.43105235     0.16100
F511        F  0.97785648  0.18585950  0.40165070    -0.23200
H512        H  0.93424423  0.19010621  0.32943398     0.18000
C513        C  0.89970874  0.22610384  0.76314478    -0.27300
C514        C  0.89090197  0.23170500  0.71531057     0.06300
C515        C  0.85624435  0.23884211  0.70526514     0.25900
C516        C  0.83106005  0.24040871  0.74264812    -0.11800
C517        C  0.83982120  0.23468241  0.79056770    -0.25700
C518        C  0.87459080  0.22763469  0.80046990     0.36700
C519        C  0.91783599  0.22970681  0.67614295     0.06300
F520        F  0.84647531  0.24378798  0.65913060    -0.19500
H521        H  0.80453031  0.24586107  0.73401636     0.16200
F522        F  0.88475899  0.22289023  0.84653372    -0.23200
H523        H  0.92633041  0.22077905  0.77170863     0.17900
C524        C  0.92624477  0.24672569  0.64561510     0.25900
C525        C  0.95019641  0.24428680  0.60722091    -0.11800
C526        C  0.96643866  0.22495836  0.59888625    -0.25800
C527        C  0.95907911  0.20811258  0.63028872     0.36900
C528        C  0.93505134  0.21053230  0.66875039    -0.27400
F529        F  0.91125928  0.26568924  0.65285682    -0.19500
H530        H  0.95555407  0.25739138  0.58316723     0.16100
F531        F  0.97361267  0.18909400  0.62217105    -0.23200
H532        H  0.92893471  0.19723191  0.69184605     0.18000
C533        C  0.43757140  0.29895338  0.67376077    -0.27300
C534        C  0.41501780  0.28192944  0.68357657     0.06300
C535        C  0.41581699  0.26465143  0.65256465     0.25900
C536        C  0.43821356  0.26467918  0.61194965    -0.11800
C537        C  0.46037425  0.28184381  0.60164765    -0.25700
C538        C  0.45999642  0.29897528  0.63312068     0.36700
C539        C  0.39065559  0.28228816  0.72599134     0.06300
F540        F  0.39519669  0.24767045  0.66185994    -0.19500
H541        H  0.43810003  0.25132908  0.58814458     0.16200
F542        F  0.48005823  0.31611558  0.62336229    -0.23200
H543        H  0.43713703  0.31248910  0.69697620     0.17900
C544        C  0.40379858  0.28620729  0.77272206     0.25900
C545        C  0.38092113  0.28587180  0.81272376    -0.11800
C546        C  0.34447528  0.28148838  0.80714323    -0.25800
C547        C  0.33115686  0.27797989  0.76011496     0.36900
C548        C  0.35411516  0.27842006  0.72001921    -0.27400
F549        F  0.43905880  0.28948701  0.78000881    -0.19500
H550        H  0.39208492  0.28840591  0.84841947     0.16100
F551        F  0.29607179  0.27408777  0.75276242    -0.23200
H552        H  0.34337565  0.27566345  0.68416846     0.18000
C553        C  0.38151119  0.25462277  0.27844136    -0.27300
C554        C  0.38295728  0.27317121  0.30508315     0.06300
C555        C  0.35941971  0.28951070  0.29295227     0.25900
C556        C  0.33535880  0.28728358  0.25447634    -0.11800
C557        C  0.33367212  0.26855002  0.22871173    -0.25700
C558        C  0.35683652  0.25219526  0.24111349     0.36700
C559        C  0.40877228  0.27504592  0.34564639     0.06300
F560        F  0.35889388  0.30732245  0.31916933    -0.19500
H561        H  0.31750983  0.29998746  0.24546067     0.16200
F562        F  0.35631193  0.23405668  0.21609897    -0.23200
H563        H  0.39971254  0.24196893  0.28640921     0.17900
C564        C  0.41198661  0.25894485  0.38047230     0.25900
C565        C  0.43631466  0.26065486  0.41844017    -0.11800
C566        C  0.45792495  0.27839303  0.42265310    -0.25800
C567        C  0.45510063  0.29444547  0.38776604     0.36900
C568        C  0.43073892  0.29273376  0.34952645    -0.27400
F569        F  0.39066744  0.24186207  0.37888328    -0.19500
H570        H  0.43779413  0.24826689  0.44539817     0.16100
F571        F  0.47478815  0.31209841  0.39180208    -0.23200
H572        H  0.42898530  0.30524783  0.32295191     0.18000
C573        C  0.14732705  0.23712407  0.71199130    -0.27300
C574        C  0.12177780  0.22119009  0.71499820     0.06300
C575        C  0.12236315  0.20746837  0.75507604     0.25900
C576        C  0.14740893  0.21015294  0.79216543    -0.11800
C577        C  0.17244164  0.22652829  0.79000229    -0.25700
C578        C  0.17243031  0.23981026  0.74884837     0.36700
C579        C  0.09430977  0.21943589  0.67655032     0.06300
F580        F  0.09779858  0.19202503  0.75937348    -0.19500
H581        H  0.14655700  0.19967851  0.82323311     0.16200
F582        F  0.19623484  0.25564555  0.74429768    -0.23200
H583        H  0.14762898  0.24766731  0.68101390     0.17900
C584        C  0.07240373  0.23654833  0.66502656     0.25900
C585        C  0.04831748  0.23546055  0.62643082    -0.11800
C586        C  0.04588552  0.21739617  0.59825335    -0.25800
C587        C  0.06731113  0.20011242  0.61033599     0.36900
C588        C  0.09103867  0.20108505  0.64949157    -0.27400
F589        F  0.07470451  0.25444384  0.69076191    -0.19500
H590        H  0.03250073  0.24904671  0.61732157     0.16100
F591        F  0.06578945  0.18246427  0.58359226    -0.23200
H592        H  0.10779872  0.18777662  0.65761700     0.18000
C593        C  0.06523390  0.23224353  0.34411358    -0.27300
C594        C  0.08702504  0.21499042  0.33502314     0.06300
C595        C  0.08672870  0.19798926  0.36753365     0.25900
C596        C  0.06512343  0.19843010  0.40893761    -0.11800
C597        C  0.04336084  0.21574472  0.41826393    -0.25700
C598        C  0.04358084  0.23268583  0.38538271     0.36700
C599        C  0.11153551  0.21545888  0.29312786     0.06300
F600        F  0.10834479  0.18137308  0.36017850    -0.19500
H601        H  0.06568495  0.18536998  0.43417053     0.16200
F602        F  0.02421915  0.25007652  0.39432856    -0.23200
H603        H  0.06554131  0.24555606  0.31958849     0.17900
C604        C  0.10647653  0.20219661  0.25351753     0.25900
C605        C  0.12955407  0.20324457  0.21364664    -0.11800
C606        C  0.15812361  0.21748538  0.21272280    -0.25800
C607        C  0.16297798  0.23076917  0.25266737     0.36900
C608        C  0.13981065  0.22971974  0.29235649    -0.27400
F609        F  0.07861608  0.18871277  0.25280806    -0.19500
H610        H  0.12484634  0.19301181  0.18325679     0.16100
F611        F  0.18922278  0.24532712  0.25275689    -0.23200
H612        H  0.14377016  0.24017488  0.32254697     0.18000
C613        C  0.89983254  0.08889578  0.03836847    -0.27300
C614        C  0.87842827  0.09544748  0.99937921     0.06300
C615        C  0.87237942  0.08165940  0.96066915     0.25900
C616        C  0.88970494  0.06237512  0.95947386    -0.11800
C617        C  0.91292828  0.05659040  0.99698939    -0.25700
C618        C  0.91681356  0.06959662  0.03733068     0.36700
C619        C  0.86566099  0.11730644  0.99722683     0.06300
F620        F  0.85078173  0.08716004  0.92322808    -0.19500
H621        H  0.88658253  0.05247986  0.92810733     0.16200
F622        F  0.93915236  0.06421416  0.07404799    -0.23200
H623        H  0.90521368  0.09923727  0.06833329     0.17900
C624        C  0.85014370  0.12680028  0.03792920     0.25900
C625        C  0.84028156  0.14780125  0.03595054    -0.11800
C626        C  0.84516931  0.15963559  0.99322808    -0.25800
C627        C  0.86083978  0.15016365  0.95262425     0.36900
C628        C  0.87119633  0.12927367  0.95487083    -0.27400
F629        F  0.84376585  0.11567656  0.07923271    -0.19500
H630        H  0.82789869  0.15466969  0.06752380     0.16100
F631        F  0.86681246  0.16116508  0.91103951    -0.23200
H632        H  0.88412921  0.12251771  0.92358218     0.18000
C633        C  0.12890504  0.07969183  0.96105370    -0.27300
C634        C  0.13362631  0.09017736  0.00513258     0.06300
C635        C  0.12080472  0.08099832  0.04840583     0.25900
C636        C  0.10113873  0.06252172  0.04682829    -0.11800
C637        C  0.09439206  0.05294707  0.00228107    -0.25700
C638        C  0.10947436  0.06116502  0.95958995     0.36700
C639        C  0.14748111  0.11178032  0.00447777     0.06300
F640        F  0.12590485  0.09039772  0.09180672    -0.19500
H641        H  0.08952280  0.05628054  0.07994034     0.16200
F642        F  0.10257575  0.05228981  0.91605355    -0.23200
H643        H  0.13809556  0.08659074  0.92723853     0.17900
C644        C  0.17837056  0.11709780  0.97826538     0.25900
C645        C  0.18866142  0.13797279  0.97357597    -0.11800
C646        C  0.16871370  0.15377453  0.99565567    -0.25800
C647        C  0.13822435  0.14844236  0.02256334     0.36900
C648        C  0.12761817  0.12763851  0.02656924    -0.27400
F649        F  0.19869789  0.10211097  0.95758982    -0.19500
H650        H  0.21259681  0.14178252  0.95338424     0.16100
F651        F  0.11796533  0.16340731  0.04344811    -0.23200
H652        H  0.10321779  0.12397242  0.04582458     0.18000
C653        C  0.14908232  0.87212270  0.02357379    -0.27300
C654        C  0.13575560  0.88322314  0.98342882     0.06300
C655        C  0.13402892  0.87319935  0.93816091     0.25900
C656        C  0.14479651  0.85235828  0.93378047    -0.11800
C657        C  0.15696972  0.84105629  0.97449268    -0.25700
C658        C  0.15924660  0.85129013  0.01946270     0.36700
C659        C  0.12144468  0.90462360  0.99008382     0.06300
F660        F  0.12059689  0.88323520  0.89863048    -0.19500
H661        H  0.14287029  0.84492202  0.89873673     0.16200
F662        F  0.17180988  0.84130625  0.05958916    -0.23200
H663        H  0.15132745  0.87958243  0.05855778     0.17900
C664        C  0.09724388  0.90864262  0.02795999     0.25900
C665        C  0.08089701  0.92808694  0.03142330    -0.11800
C666        C  0.08811940  0.94384436  0.99719724    -0.25800
C667        C  0.11379184  0.94040386  0.96108918     0.36900
C668        C  0.13036225  0.92090183  0.95761773    -0.27400
F669        F  0.08728042  0.89330746  0.05948903    -0.19500
H670        H  0.06069210  0.93043244  0.05893073     0.16100
F671        F  0.12093136  0.95540621  0.92734757    -0.23200
H672        H  0.14933847  0.91830440  0.92868709     0.18000
C673        C  0.83654254  0.88000876  0.93625015    -0.27300
C674        C  0.86445547  0.88612461  0.96667813     0.06300
C675        C  0.88157003  0.87094130  0.99570555     0.25900
C676        C  0.87023017  0.85017929  0.99499978    -0.11800
C677        C  0.84223545  0.84412571  0.96462390    -0.25700
C678        C  0.82567075  0.85921436  0.93485286     0.36700
C679        C  0.87596952  0.90821916  0.96778812     0.06300
F680        F  0.90969673  0.87608762  0.02407714    -0.19500
H681        H  0.88353043  0.83878751  0.01788121     0.16200
F682        F  0.79792579  0.85405300  0.90582913    -0.23200
H683        H  0.82267996  0.89142218  0.91408997     0.17900
C684        C  0.88285916  0.91943861  0.92451200     0.25900
C685        C  0.89869612  0.93913724  0.92637197    -0.11800
C686        C  0.90851233  0.94758374  0.97116035    -0.25800
C687        C  0.89898811  0.93724632  0.01431314     0.36900
C688        C  0.88244912  0.91780359  0.01257542    -0.27400
F689        F  0.87727309  0.91068204  0.88049463    -0.19500
H690        H  0.90627949  0.94695035  0.89286149     0.16100
F691        F  0.90824328  0.94523684  0.05798227    -0.23200
H692        H  0.87633767  0.90974341  0.04631469     0.18000
C693        C  0.66823497  0.37857190  0.04920014    -0.27300
C694        C  0.63845012  0.38438392  0.02149846     0.06300
C695        C  0.61941061  0.36873921  0.99672998     0.25900
C696        C  0.63087360  0.34802607  0.99824722    -0.11800
C697        C  0.66050203  0.34235560  0.02605551    -0.25700
C698        C  0.67878402  0.35773787  0.05227939     0.36700
C699        C  0.62696081  0.40657364  0.01889694     0.06300
F700        F  0.58913193  0.37330301  0.97206155    -0.19500
H701        H  0.61614884  0.33632021  0.97848474     0.16200
F702        F  0.70766691  0.35275134  0.07957173    -0.23200
H703        H  0.68375333  0.39018951  0.06803405     0.17900
C704        C  0.62557959  0.41907644  0.06078070     0.25900
C705        C  0.60986740  0.43882865  0.05869785    -0.11800
C706        C  0.59484775  0.44620936  0.01529517    -0.25800
C707        C  0.59853347  0.43451219  0.97285063     0.36900
C708        C  0.61503803  0.41504673  0.97453603    -0.27400
F709        F  0.63650700  0.41162409  0.10456487    -0.19500
H710        H  0.60663115  0.44759554  0.09183417     0.16100
F711        F  0.58364490  0.44120511  0.93062799    -0.23200
H712        H  0.61693256  0.40615148  0.94141740     0.18000
C713        C  0.39853248  0.41030511  0.97559577    -0.27300
C714        C  0.37347174  0.40709091  0.01280116     0.06300
C715        C  0.36748709  0.42303977  0.04668045     0.25900
C716        C  0.38758340  0.44140536  0.04447376    -0.11800
C717        C  0.41363889  0.44404785  0.00844484    -0.25700
C718        C  0.41832709  0.42864152  0.97324572     0.36700
C719        C  0.35661562  0.38631378  0.01816620     0.06300
F720        F  0.34288147  0.42066322  0.08243758    -0.19500
H721        H  0.38387696  0.45319629  0.07191970     0.16200
F722        F  0.44357803  0.43088839  0.93827534    -0.23200
H723        H  0.40410325  0.39815304  0.94964102     0.17900
C724        C  0.34271000  0.37597733  0.97758539     0.25900
C725        C  0.33204117  0.35516113  0.98143541    -0.11800
C726        C  0.33432478  0.34437222  0.02599094    -0.25800
C727        C  0.34668591  0.35503440  0.06713049     0.36900
C728        C  0.35797501  0.37574672  0.06302436    -0.27400
F729        F  0.33964926  0.38599323  0.93412609    -0.19500
H730        H  0.32182453  0.34748953  0.94946941     0.16100
F731        F  0.34926042  0.34525064  0.11090844    -0.23200
H732        H  0.36912158  0.38326755  0.09460044     0.18000
C733        C  0.38394148  0.58335098  0.96161148    -0.27300
C734        C  0.37290765  0.59141685  0.00646049     0.06300
C735        C  0.37665822  0.57905632  0.04867905     0.25900
C736        C  0.39407953  0.55985968  0.04639773    -0.11800
C737        C  0.40818612  0.55290161  0.00229118    -0.25700
C738        C  0.40170331  0.56427866  0.95949977     0.36700
C739        C  0.36028613  0.61325689  0.00920215     0.06300
F740        F  0.36640540  0.58628207  0.09268503    -0.19500
H741        H  0.39923262  0.55123721  0.07966814     0.16200
F742        F  0.41479768  0.55767289  0.91635497    -0.23200
H743        H  0.38038225  0.59234944  0.92848618     0.17900
C744        C  0.37978929  0.62947593  0.98673060     0.25900
C745        C  0.36732967  0.64997829  0.98792257    -0.11800
C746        C  0.33592987  0.65475798  0.01288074    -0.25800
C747        C  0.31702623  0.63870199  0.03674479     0.36900
C748        C  0.32898983  0.61810765  0.03450185    -0.27400
F749        F  0.41134346  0.62556591  0.96458245    -0.19500
H750        H  0.38251262  0.66219889  0.97000725     0.16100
F751        F  0.28625033  0.64281149  0.06065228    -0.23200
H752        H  0.31349009  0.60589460  0.05189700     0.18000
C753        C  0.63577272  0.62797928  0.04793257    -0.27300
C754        C  0.63995833  0.61636340  0.00525420     0.06300
C755        C  0.65500459  0.62619328  0.96406859     0.25900
C756        C  0.66492592  0.64719789  0.96562407    -0.11800
C757        C  0.66100716  0.65866071  0.00850842    -0.25700
C758        C  0.64665553  0.64877486  0.04988276     0.36700
C759        C  0.62618973  0.59462536  0.00326799     0.06300
F760        F  0.66077327  0.61544895  0.92256453    -0.19500
H761        H  0.67652048  0.65437717  0.93352416     0.16200
F762        F  0.64224371  0.65934435  0.09192707    -0.23200
H763        H  0.62328809  0.62111103  0.07972988     0.17900
C764        C  0.63018512  0.58068761  0.04289867     0.25900
C765        C  0.61216992  0.56157514  0.04349375    -0.11800
C766        C  0.59057875  0.55595925  0.00431947    -0.25800
C767        C  0.58868071  0.56905595  0.96335512     0.36900
C768        C  0.60600213  0.58828816  0.96307332    -0.27400
F769        F  0.65064626  0.58576193  0.08161373    -0.19500
H770        H  0.61370768  0.55159605  0.07538441     0.16100
F771        F  0.56801613  0.56378514  0.92498547    -0.23200
H772        H  0.60185735  0.59869225  0.93242921     0.18000
loop_ 
_geom_bond_atom_site_label_1 
_geom_bond_atom_site_label_2 
_geom_bond_distance 
_geom_bond_site_symmetry_2 
_ccdc_geom_bond_type 
N1            C6   1.354       .  A
N1            C5   1.352       .  A
N1           H33   1.038   1_554  S
N2            C9   1.349       .  A
N2           C10   1.350       .  A
N3            C8   1.352       .  A
N3            C7   1.352       .  A
N3           H34   1.037   1_554  S
N4           C11   1.348   1_554  A
N4           C12   1.347       .  A
C5           C13   1.387       .  A
C5           C21   1.415       .  A
C6           C22   1.416       .  A
C6           C14   1.388       .  A
C7           C15   1.388       .  A
C7           C24   1.414       .  A
C8           C23   1.414       .  A
C8           C16   1.387       .  A
C9           C21   1.409       .  A
C9           C17   1.386   1_554  A
C10          C24   1.409       .  A
C10          C18   1.385   1_554  A
C11          C19   1.385       .  A
C11          C22   1.406   1_556  A
C12          C20   1.386   1_554  A
C12          C23   1.408       .  A
C13          C14   1.371       .  A
C13          H25   1.082       .  S
C14          H26   1.082       .  S
C15          C16   1.371       .  A
C15          H27   1.082       .  S
C16          H28   1.082       .  S
C17          C18   1.377       .  A
C17          H29   1.082       .  S
C18          H30   1.082       .  S
C19          C20   1.376       .  A
C19          H31   1.082       .  S
C20          H32   1.082       .  S
C21         C766   1.480       .  S
C22         C737   1.479       .  S
C23         C717   1.479       .  S
C24         C706   1.480       .  S
N35          C40   1.351   1_455  A
N35          C39   1.352       .  A
N35          H67   1.043   1_556  S
N36          C43   1.347   1_566  A
N36          C44   1.348   1_556  A
N37          C42   1.352       .  A
N37          C41   1.353   1_655  A
N37          H68   1.041   1_556  S
N38          C45   1.348       .  A
N38          C46   1.347   1_545  A
C39          C47   1.390       .  A
C39          C55   1.416       .  A
C40          C56   1.412       .  A
C40          C48   1.386       .  A
C41          C49   1.386       .  A
C41          C58   1.413       .  A
C42          C57   1.415       .  A
C42          C50   1.389       .  A
C43          C55   1.408   1_554  A
C43          C51   1.386       .  A
C44          C58   1.408   1_554  A
C44          C52   1.385       .  A
C45          C53   1.385   1_556  A
C45          C56   1.406       .  A
C46          C54   1.386       .  A
C46          C57   1.407       .  A
C47          C48   1.372   1_455  A
C47          H59   1.082       .  S
C48          H60   1.083       .  S
C49          C50   1.370   1_455  A
C49          H61   1.082       .  S
C50          H62   1.081       .  S
C51          C52   1.378   1_545  A
C51          H63   1.082       .  S
C52          H64   1.082       .  S
C53          C54   1.377   1_544  A
C53          H65   1.082       .  S
C54          H66   1.082   1_556  S
C55         C637   1.476   1_556  S
C56         C617   1.480       .  S
C57         C686   1.476       .  S
C58         C666   1.483       .  S
O69         Mg71   2.136   1_554  S
O69         Mg77   2.144       .  S
O69         C104   1.238       .  S
C70         H109   1.081       .  S
C70          O83   1.237       .  S
C70         O107   1.271       .  A
Mg71        O100   2.142       .  S
Mg71        O115   2.305       .  S
Mg71        O111   2.256       .  S
Mg71         O82   2.297       .  S
O72        Mg114   2.144       .  S
O72         Mg97   2.128       .  S
O72          C93   1.238       .  S
O73         C104   1.272       .  A
O73         Mg97   2.301       .  S
C74         C577   1.491       .  S
C74          O76   1.275       .  A
C74          O88   1.277       .  A
O75         C103   1.272   1_554  A
O75         Mg77   2.305       .  S
O76        Mg108   2.273       .  S
Mg77         O83   2.126       .  S
Mg77         O91   2.259       .  S
Mg77         O79   2.314       .  S
C78         C646   1.471       .  S
C78         O116   1.272       .  A
C78          O84   1.274   1_556  A
O79          C86   1.276       .  A
H80          C93   1.081       .  S
C81         H106   1.081       .  S
C81          O95   1.237       .  S
C81          O96   1.270       .  A
O82         C105   1.271       .  A
O83         Mg97   2.143       .  S
O84        Mg114   2.291       .  S
C85         C606   1.484       .  S
C85          O98   1.272       .  A
C85          O90   1.277       .  A
C86         C557   1.472       .  S
C86         O113   1.273       .  A
Mg87         O94   2.126       .  S
Mg87         O95   2.153       .  S
Mg87         O88   2.313       .  S
Mg87         O89   2.294   1_556  S
Mg87        O116   2.257       .  S
O89          C93   1.271       .  A
O90         Mg97   2.316       .  S
O91         C110   1.272       .  A
O92         C112   1.276       .  A
O92        Mg108   2.309       .  S
O94        Mg108   2.144       .  S
O94         C105   1.238       .  S
O95        Mg114   2.126   1_556  S
O96        Mg108   2.293       .  S
Mg97        O113   2.260       .  S
O98        Mg114   2.258       .  S
H99         C104   1.081       .  S
O100       Mg108   2.140       .  S
O100        C103   1.238       .  S
H101        C103   1.081       .  S
H102        C105   1.081       .  S
O107       Mg114   2.298       .  S
C110        C726   1.479       .  S
C110        O115   1.276   1_554  A
O111        C112   1.273       .  A
C112        C546   1.483       .  S
O117       Mg119   2.151   1_556  S
O117       Mg125   2.130       .  S
O117        C152   1.238       .  S
C118        H157   1.081       .  S
C118        O131   1.237       .  S
C118        O155   1.271       .  A
Mg119       O148   2.147       .  S
Mg119       O163   2.303       .  S
Mg119       O159   2.273       .  S
Mg119       O130   2.287       .  S
O120       Mg162   2.151       .  S
O120       Mg145   2.142       .  S
O120        C141   1.240       .  S
O121        C152   1.273       .  A
O121       Mg145   2.311       .  S
C122        C466   1.499       .  S
C122        O124   1.278       .  A
C122        O136   1.275       .  A
O123        C151   1.275       .  A
O123       Mg125   2.310   1_554  S
O124       Mg156   2.308       .  S
Mg125       O131   2.134       .  S
Mg125       O139   2.264       .  S
Mg125       O127   2.322       .  S
C126        C697   1.471       .  S
C126        O164   1.267       .  A
C126        O132   1.276   1_554  A
O127        C134   1.278       .  A
H128        C141   1.081       .  S
C129        H154   1.081       .  S
C129        O143   1.238       .  S
C129        O144   1.272       .  A
O130        C153   1.270       .  A
O131       Mg145   2.143       .  S
O132       Mg162   2.313       .  S
C133        C477   1.488       .  S
C133        O146   1.273       .  A
C133        O138   1.280       .  A
C134        C517   1.485       .  S
C134        O161   1.275       .  A
Mg135       O142   2.108       .  S
Mg135       O143   2.142       .  S
Mg135       O136   2.309       .  S
Mg135       O137   2.303       .  S
Mg135       O164   2.226       .  S
O137        C141   1.273   1_554  A
O138       Mg145   2.341       .  S
O139        C158   1.272       .  A
O140        C160   1.280       .  A
O140       Mg156   2.333       .  S
O142       Mg156   2.139       .  S
O142        C153   1.237       .  S
O143       Mg162   2.140   1_554  S
O144       Mg156   2.301       .  S
Mg145       O161   2.285       .  S
O146       Mg162   2.259       .  S
H147        C152   1.081       .  S
O148       Mg156   2.148       .  S
O148        C151   1.241       .  S
H149        C151   1.081       .  S
H150        C153   1.081       .  S
O155       Mg162   2.299       .  S
C158        C626   1.478       .  S
C158        O163   1.275   1_556  A
O159        C160   1.275       .  A
C160        C497   1.494       .  S
O165       Mg167   2.131   1_554  S
O165       Mg173   2.142       .  S
O165        C200   1.238       .  S
C166        H205   1.081       .  S
C166        O179   1.237       .  S
C166        O203   1.271       .  A
Mg167       O196   2.136       .  S
Mg167       O211   2.300       .  S
Mg167       O207   2.253       .  S
Mg167       O178   2.298       .  S
O168       Mg210   2.145       .  S
O168       Mg193   2.128       .  S
O168        C189   1.237       .  S
O169        C200   1.271       .  A
O169       Mg193   2.295       .  S
C170        C417   1.482       .  S
C170        O172   1.273       .  A
C170        O184   1.272       .  A
O171        C199   1.272       .  A
O171       Mg173   2.301   1_556  S
O172       Mg204   2.265       .  S
Mg173       O179   2.132       .  S
Mg173       O187   2.259       .  S
Mg173       O175   2.313       .  S
C174        C677   1.475       .  S
C174        O212   1.270       .  A
C174        O180   1.276   1_556  A
O175        C182   1.276       .  A
H176        C189   1.081       .  S
C177        H202   1.081       .  S
C177        O191   1.239       .  S
C177        O192   1.273       .  A
O178        C201   1.271       .  A
O179       Mg193   2.142       .  S
O180       Mg210   2.314       .  S
C181        C437   1.480       .  S
C181        O194   1.275       .  A
C181        O186   1.277       .  A
C182        C397   1.485       .  S
C182        O209   1.274       .  A
Mg183       O190   2.128       .  S
Mg183       O191   2.150       .  S
Mg183       O184   2.277       .  S
Mg183       O185   2.292       .  S
Mg183       O212   2.241       .  S
O185        C189   1.270   1_556  A
O186       Mg193   2.307       .  S
O187        C206   1.272       .  A
O188        C208   1.279       .  A
O188       Mg204   2.330       .  S
O190       Mg204   2.144       .  S
O190        C201   1.237       .  S
O191       Mg210   2.143   1_556  S
O192       Mg204   2.308       .  S
Mg193       O209   2.270       .  S
O194       Mg210   2.277       .  S
H195        C200   1.081       .  S
O196       Mg204   2.124       .  S
O196        C199   1.238       .  S
H197        C199   1.081       .  S
H198        C201   1.081       .  S
O203       Mg210   2.298       .  S
C206        C757   1.477       .  S
C206        O211   1.275   1_554  A
O207        C208   1.271       .  A
C208        C377   1.490       .  S
O213       Mg215   2.138   1_556  S
O213       Mg221   2.151       .  S
O213        C248   1.240       .  S
C214        H253   1.081       .  S
C214        O227   1.237       .  S
C214        O251   1.271       .  A
Mg215       O244   2.137       .  S
Mg215       O259   2.297       .  S
Mg215       O255   2.259       .  S
Mg215       O226   2.296       .  S
O216       Mg258   2.142       .  S
O216       Mg241   2.131       .  S
O216        C237   1.239       .  S
O217        C248   1.273       .  A
O217       Mg241   2.305       .  S
C218        C297   1.488       .  S
C218        O220   1.274       .  A
C218        O232   1.277       .  A
O219        C247   1.271   1_556  A
O219       Mg221   2.299       .  S
O220       Mg252   2.267       .  S
Mg221       O227   2.140       .  S
Mg221       O235   2.288       .  S
Mg221       O223   2.304       .  S
C222        C746   1.472       .  S
C222        O260   1.271       .  A
C222        O228   1.276   1_554  A
O223        C230   1.276       .  A
H224        C237   1.081       .  S
C225        H250   1.081       .  S
C225        O239   1.237       .  S
C225        O240   1.270       .  A
O226        C249   1.271       .  A
O227       Mg241   2.145       .  S
O228       Mg258   2.310       .  S
C229        C317   1.490       .  S
C229        O242   1.273       .  A
C229        O234   1.281       .  A
C230        C357   1.472       .  S
C230        O257   1.273       .  A
Mg231       O238   2.124       .  S
Mg231       O239   2.146       .  S
Mg231       O232   2.316       .  S
Mg231       O233   2.300       .  S
Mg231       O260   2.247       .  S
O233        C237   1.272   1_554  A
O234       Mg241   2.344       .  S
O235        C254   1.275       .  A
O236        C256   1.276       .  A
O236       Mg252   2.312       .  S
O238       Mg252   2.143       .  S
O238        C249   1.238       .  S
O239       Mg258   2.126   1_554  S
O240       Mg252   2.293       .  S
Mg241       O257   2.258       .  S
O242       Mg258   2.256       .  S
H243        C248   1.081       .  S
O244       Mg252   2.128       .  S
O244        C247   1.238       .  S
H245        C247   1.081       .  S
H246        C249   1.081       .  S
O251       Mg258   2.300       .  S
C254        C657   1.486       .  S
C254        O259   1.275   1_556  A
O255        C256   1.273       .  A
C256        C346   1.487       .  S
C261        C262   1.415   1_455  A
C261        C266   1.407       .  A
C261        C597   1.485       .  S
C262        C263   1.401       .  A
C262        C506   1.486       .  S
C263        C264   1.403       .  A
C263        H268   1.085       .  S
C264        C265   1.415   1_655  A
C264        C526   1.480       .  S
C265        C266   1.406       .  A
C265        C586   1.488       .  S
C266        H267   1.085       .  S
C269        C270   1.412   1_655  A
C269        C274   1.400       .  A
C269        C446   1.480       .  S
C270        C271   1.400       .  A
C270        C337   1.476       .  S
C271        C272   1.403       .  A
C271        H276   1.085       .  S
C272        C273   1.414   1_455  A
C272        C366   1.486       .  S
C273        C274   1.402       .  A
C273        C426   1.473       .  S
C274        H275   1.085       .  S
C277        C278   1.424       .  A
C277        C282   1.408       .  A
C277        C406   1.499       .  S
C278        C279   1.412       .  A
C278        C306   1.494       .  S
C279        C280   1.406       .  A
C279        H284   1.084       .  S
C280        C281   1.412       .  A
C280        C326   1.493       .  S
C281        C282   1.402       .  A
C281        C386   1.483       .  S
C282        H283   1.085       .  S
C285        C286   1.415       .  A
C285        C290   1.405       .  A
C285        C457   1.488       .  S
C286        C287   1.404       .  A
C286        C566   1.482       .  S
C287        C288   1.402       .  A
C287        H292   1.085       .  S
C288        C289   1.416       .  A
C288        C537   1.488       .  S
C289        C290   1.407       .  A
C289        C486   1.484       .  S
C290        H291   1.085       .  S
C293        C294   1.404       .  A
C293        C298   1.400       .  A
C293        H303   1.083       .  S
C294        C295   1.407       .  A
C294        C299   1.488       .  S
C295        C296   1.400       .  A
C295        F300   1.357       .  S
C296        C297   1.406       .  A
C296        H301   1.083       .  S
C297        C298   1.411       .  A
C298        F302   1.358       .  S
C299        C304   1.409       .  A
C299        C308   1.403       .  A
C304        C305   1.403       .  A
C304        F309   1.357       .  S
C305        C306   1.406       .  A
C305        H310   1.083       .  S
C306        C307   1.410       .  A
C307        C308   1.397       .  A
C307        F311   1.358       .  S
C308        H312   1.083       .  S
C313        C314   1.401       .  A
C313        C318   1.399       .  A
C313        H323   1.083       .  S
C314        C315   1.407       .  A
C314        C319   1.484       .  S
C315        C316   1.403       .  A
C315        F320   1.357       .  S
C316        C317   1.407       .  A
C316        H321   1.083       .  S
C317        C318   1.413       .  A
C318        F322   1.358       .  S
C319        C324   1.406       .  A
C319        C328   1.403       .  A
C324        C325   1.401       .  A
C324        F329   1.357       .  S
C325        C326   1.406       .  A
C325        H330   1.083       .  S
C326        C327   1.409       .  A
C327        C328   1.400       .  A
C327        F331   1.357       .  S
C328        H332   1.083       .  S
C333        C334   1.408       .  A
C333        C338   1.400       .  A
C333        H343   1.083       .  S
C334        C335   1.408       .  A
C334        C339   1.486       .  S
C335        C336   1.395       .  A
C335        F340   1.357       .  S
C336        C337   1.401       .  A
C336        H341   1.084       .  S
C337        C338   1.403       .  A
C338        F342   1.357       .  S
C339        C344   1.405       .  A
C339        C348   1.406       .  A
C344        C345   1.396       .  A
C344        F349   1.357       .  S
C345        C346   1.407       .  A
C345        H350   1.083       .  S
C346        C347   1.411       .  A
C347        C348   1.400       .  A
C347        F351   1.358       .  S
C348        H352   1.083       .  S
C353        C354   1.406       .  A
C353        C358   1.396       .  A
C353        H363   1.083       .  S
C354        C355   1.411       .  A
C354        C359   1.487       .  S
C355        C356   1.398       .  A
C355        F360   1.357       .  S
C356        C357   1.401       .  A
C356        H361   1.083       .  S
C357        C358   1.405       .  A
C358        F362   1.358       .  S
C359        C364   1.408       .  A
C359        C368   1.407       .  A
C364        C365   1.395       .  A
C364        F369   1.358       .  S
C365        C366   1.405       .  A
C365        H370   1.084       .  S
C366        C367   1.406       .  A
C367        C368   1.398       .  A
C367        F371   1.356       .  S
C368        H372   1.083       .  S
C373        C374   1.403       .  A
C373        C378   1.398       .  A
C373        H383   1.083       .  S
C374        C375   1.411       .  A
C374        C379   1.491       .  S
C375        C376   1.401       .  A
C375        F380   1.358       .  S
C376        C377   1.407       .  A
C376        H381   1.083       .  S
C377        C378   1.412       .  A
C378        F382   1.357       .  S
C379        C384   1.412       .  A
C379        C388   1.405       .  A
C384        C385   1.402       .  A
C384        F389   1.357       .  S
C385        C386   1.402       .  A
C385        H390   1.083       .  S
C386        C387   1.405       .  A
C387        C388   1.396       .  A
C387        F391   1.358       .  S
C388        H392   1.083       .  S
C393        C394   1.409       .  A
C393        C398   1.398       .  A
C393        H403   1.082       .  S
C394        C395   1.413       .  A
C394        C399   1.502       .  S
C395        C396   1.403       .  A
C395        F400   1.357       .  S
C396        C397   1.405       .  A
C396        H401   1.083       .  S
C397        C398   1.407       .  A
C398        F402   1.358       .  S
C399        C404   1.410       .  A
C399        C408   1.411       .  A
C404        C405   1.396       .  A
C404        F409   1.357       .  S
C405        C406   1.407       .  A
C405        H410   1.083       .  S
C406        C407   1.408       .  A
C407        C408   1.405       .  A
C407        F411   1.356       .  S
C408        H412   1.082       .  S
C413        C414   1.401       .  A
C413        C418   1.395       .  A
C413        H423   1.083       .  S
C414        C415   1.406       .  A
C414        C419   1.477       .  S
C415        C416   1.397       .  A
C415        F420   1.358       .  S
C416        C417   1.406       .  A
C416        H421   1.083       .  S
C417        C418   1.412       .  A
C418        F422   1.358       .  S
C419        C424   1.406       .  A
C419        C428   1.405       .  A
C424        C425   1.395       .  A
C424        F429   1.358       .  S
C425        C426   1.402       .  A
C425        H430   1.083       .  S
C426        C427   1.403       .  A
C427        C428   1.397       .  A
C427        F431   1.357       .  S
C428        H432   1.083       .  S
C433        C434   1.402       .  A
C433        C438   1.397       .  A
C433        H443   1.083       .  S
C434        C435   1.406       .  A
C434        C439   1.479       .  S
C435        C436   1.400       .  A
C435        F440   1.358       .  S
C436        C437   1.406       .  A
C436        H441   1.083       .  S
C437        C438   1.409       .  A
C438        F442   1.358       .  S
C439        C444   1.405       .  A
C439        C448   1.404       .  A
C444        C445   1.399       .  A
C444        F449   1.357       .  S
C445        C446   1.404       .  A
C445        H450   1.083       .  S
C446        C447   1.405       .  A
C447        C448   1.397       .  A
C447        F451   1.357       .  S
C448        H452   1.083       .  S
C453        C454   1.406       .  A
C453        C458   1.401       .  A
C453        H463   1.083       .  S
C454        C455   1.408       .  A
C454        C459   1.491       .  S
C455        C456   1.403       .  A
C455        F460   1.357       .  S
C456        C457   1.405       .  A
C456        H461   1.083       .  S
C457        C458   1.406       .  A
C458        F462   1.357       .  S
C459        C464   1.407       .  A
C459        C468   1.403       .  A
C464        C465   1.403       .  A
C464        F469   1.357       .  S
C465        C466   1.408       .  A
C465        H470   1.083       .  S
C466        C467   1.416       .  A
C467        C468   1.404       .  A
C467        F471   1.358       .  S
C468        H472   1.083       .  S
C473        C474   1.404       .  A
C473        C478   1.404       .  A
C473        H483   1.083       .  S
C474        C475   1.402       .  A
C474        C479   1.480       .  S
C475        C476   1.397       .  A
C475        F480   1.358       .  S
C476        C477   1.408       .  A
C476        H481   1.083       .  S
C477        C478   1.410       .  A
C478        F482   1.357       .  S
C479        C484   1.405       .  A
C479        C488   1.404       .  A
C484        C485   1.401       .  A
C484        F489   1.357       .  S
C485        C486   1.405       .  A
C485        H490   1.083       .  S
C486        C487   1.405       .  A
C487        C488   1.398       .  A
C487        F491   1.357       .  S
C488        H492   1.083       .  S
C493        C494   1.407       .  A
C493        C498   1.403       .  A
C493        H503   1.083       .  S
C494        C495   1.408       .  A
C494        C499   1.496       .  S
C495        C496   1.400       .  A
C495        F500   1.358       .  S
C496        C497   1.409       .  A
C496        H501   1.083       .  S
C497        C498   1.411       .  A
C498        F502   1.357       .  S
C499        C504   1.411       .  A
C499        C508   1.409       .  A
C504        C505   1.400       .  A
C504        F509   1.357       .  S
C505        C506   1.404       .  A
C505        H510   1.083       .  S
C506        C507   1.404       .  A
C507        C508   1.400       .  A
C507        F511   1.357       .  S
C508        H512   1.083       .  S
C513        C514   1.402       .  A
C513        C518   1.399       .  A
C513        H523   1.083       .  S
C514        C515   1.408       .  A
C514        C519   1.485       .  S
C515        C516   1.402       .  A
C515        F520   1.358       .  S
C516        C517   1.406       .  A
C516        H521   1.083       .  S
C517        C518   1.410       .  A
C518        F522   1.357       .  S
C519        C524   1.406       .  A
C519        C528   1.407       .  A
C524        C525   1.398       .  A
C524        F529   1.357       .  S
C525        C526   1.403       .  A
C525        H530   1.083       .  S
C526        C527   1.404       .  A
C527        C528   1.401       .  A
C527        F531   1.357       .  S
C528        H532   1.083       .  S
C533        C534   1.405       .  A
C533        C538   1.400       .  A
C533        H543   1.083       .  S
C534        C535   1.406       .  A
C534        C539   1.484       .  S
C535        C536   1.399       .  A
C535        F540   1.358       .  S
C536        C537   1.406       .  A
C536        H541   1.083       .  S
C537        C538   1.406       .  A
C538        F542   1.357       .  S
C539        C544   1.404       .  A
C539        C548   1.406       .  A
C544        C545   1.397       .  A
C544        F549   1.357       .  S
C545        C546   1.407       .  A
C545        H550   1.083       .  S
C546        C547   1.409       .  A
C547        C548   1.401       .  A
C547        F551   1.358       .  S
C548        H552   1.083       .  S
C553        C554   1.405       .  A
C553        C558   1.395       .  A
C553        H563   1.083       .  S
C554        C555   1.410       .  A
C554        C559   1.486       .  S
C555        C556   1.402       .  A
C555        F560   1.357       .  S
C556        C557   1.403       .  A
C556        H561   1.083       .  S
C557        C558   1.404       .  A
C558        F562   1.358       .  S
C559        C564   1.408       .  A
C559        C568   1.407       .  A
C564        C565   1.395       .  A
C564        F569   1.358       .  S
C565        C566   1.403       .  A
C565        H570   1.084       .  S
C566        C567   1.405       .  A
C567        C568   1.402       .  A
C567        F571   1.357       .  S
C568        H572   1.083       .  S
C573        C574   1.403       .  A
C573        C578   1.399       .  A
C573        H583   1.083       .  S
C574        C575   1.405       .  A
C574        C579   1.485       .  S
C575        C576   1.402       .  A
C575        F580   1.357       .  S
C576        C577   1.410       .  A
C576        H581   1.083       .  S
C577        C578   1.411       .  A
C578        F582   1.357       .  S
C579        C584   1.407       .  A
C579        C588   1.404       .  A
C584        C585   1.399       .  A
C584        F589   1.357       .  S
C585        C586   1.404       .  A
C585        H590   1.083       .  S
C586        C587   1.408       .  A
C587        C588   1.402       .  A
C587        F591   1.357       .  S
C588        H592   1.083       .  S
C593        C594   1.402       .  A
C593        C598   1.398       .  A
C593        H603   1.083       .  S
C594        C595   1.404       .  A
C594        C599   1.476       .  S
C595        C596   1.399       .  A
C595        F600   1.357       .  S
C596        C597   1.405       .  A
C596        H601   1.083       .  S
C597        C598   1.407       .  A
C598        F602   1.357       .  S
C599        C604   1.403       .  A
C599        C608   1.401       .  A
C604        C605   1.399       .  A
C604        F609   1.358       .  S
C605        C606   1.409       .  A
C605        H610   1.083       .  S
C606        C607   1.410       .  A
C607        C608   1.398       .  A
C607        F611   1.357       .  S
C608        H612   1.083       .  S
C613        C614   1.404   1_554  A
C613        C618   1.394       .  A
C613        H623   1.083       .  S
C614        C615   1.410       .  A
C614        C619   1.483       .  S
C615        C616   1.399       .  A
C615        F620   1.358       .  S
C616        C617   1.401       .  A
C616        H621   1.083       .  S
C617        C618   1.403   1_556  A
C618        F622   1.358       .  S
C619        C624   1.407   1_556  A
C619        C628   1.405       .  A
C624        C625   1.398       .  A
C624        F629   1.358       .  S
C625        C626   1.406   1_554  A
C625        H630   1.083       .  S
C626        C627   1.407       .  A
C627        C628   1.396       .  A
C627        F631   1.357       .  S
C628        H632   1.083       .  S
C633        C634   1.405   1_556  A
C633        C638   1.395       .  A
C633        H643   1.083       .  S
C634        C635   1.408       .  A
C634        C639   1.479       .  S
C635        C636   1.397       .  A
C635        F640   1.358       .  S
C636        C637   1.401       .  A
C636        H641   1.083       .  S
C637        C638   1.402   1_554  A
C638        F642   1.357       .  S
C639        C644   1.406   1_554  A
C639        C648   1.405       .  A
C644        C645   1.398       .  A
C644        F649   1.358       .  S
C645        C646   1.404       .  A
C645        H650   1.083       .  S
C646        C647   1.404   1_556  A
C647        C648   1.395       .  A
C647        F651   1.358       .  S
C648        H652   1.083       .  S
C653        C654   1.403   1_554  A
C653        C658   1.396       .  A
C653        H663   1.083       .  S
C654        C655   1.410       .  A
C654        C659   1.488       .  S
C655        C656   1.403       .  A
C655        F660   1.358       .  S
C656        C657   1.407       .  A
C656        H661   1.083       .  S
C657        C658   1.410   1_556  A
C658        F662   1.357       .  S
C659        C664   1.409   1_556  A
C659        C668   1.408       .  A
C664        C665   1.395       .  A
C664        F669   1.357       .  S
C665        C666   1.401   1_554  A
C665        H670   1.084       .  S
C666        C667   1.404       .  A
C667        C668   1.402       .  A
C667        F671   1.357       .  S
C668        H672   1.083       .  S
C673        C674   1.402       .  A
C673        C678   1.395       .  A
C673        H683   1.083       .  S
C674        C675   1.410       .  A
C674        C679   1.482       .  S
C675        C676   1.398       .  A
C675        F680   1.358   1_556  S
C676        C677   1.402       .  A
C676        H681   1.083   1_556  S
C677        C678   1.408       .  A
C678        F682   1.358       .  S
C679        C684   1.410       .  A
C679        C688   1.405   1_556  A
C684        C685   1.397       .  A
C684        F689   1.357       .  S
C685        C686   1.402       .  A
C685        H690   1.083       .  S
C686        C687   1.401   1_556  A
C687        C688   1.394       .  A
C687        F691   1.357       .  S
C688        H692   1.083       .  S
C693        C694   1.404       .  A
C693        C698   1.396       .  A
C693        H703   1.082       .  S
C694        C695   1.413   1_554  A
C694        C699   1.489       .  S
C695        C696   1.397       .  A
C695        F700   1.357       .  S
C696        C697   1.399   1_556  A
C696        H701   1.083       .  S
C697        C698   1.407       .  A
C698        F702   1.358       .  S
C699        C704   1.412       .  A
C699        C708   1.406   1_554  A
C704        C705   1.399       .  A
C704        F709   1.357       .  S
C705        C706   1.401       .  A
C705        H710   1.083       .  S
C706        C707   1.402   1_554  A
C707        C708   1.395       .  A
C707        F711   1.357       .  S
C708        H712   1.083       .  S
C713        C714   1.404   1_556  A
C713        C718   1.392       .  A
C713        H723   1.083       .  S
C714        C715   1.409       .  A
C714        C719   1.481       .  S
C715        C716   1.399       .  A
C715        F720   1.357       .  S
C716        C717   1.402       .  A
C716        H721   1.083       .  S
C717        C718   1.402   1_554  A
C718        F722   1.358       .  S
C719        C724   1.406   1_554  A
C719        C728   1.404       .  A
C724        C725   1.396       .  A
C724        F729   1.358       .  S
C725        C726   1.406   1_556  A
C725        H730   1.083       .  S
C726        C727   1.408       .  A
C727        C728   1.397       .  A
C727        F731   1.357       .  S
C728        H732   1.083       .  S
C733        C734   1.406   1_556  A
C733        C738   1.396       .  A
C733        H743   1.083       .  S
C734        C735   1.408       .  A
C734        C739   1.482       .  S
C735        C736   1.397       .  A
C735        F740   1.357       .  S
C736        C737   1.402       .  A
C736        H741   1.083       .  S
C737        C738   1.402   1_554  A
C738        F742   1.357       .  S
C739        C744   1.409   1_554  A
C739        C748   1.403       .  A
C744        C745   1.397       .  A
C744        F749   1.358       .  S
C745        C746   1.401   1_556  A
C745        H750   1.083       .  S
C746        C747   1.407       .  A
C747        C748   1.398       .  A
C747        F751   1.358       .  S
C748        H752   1.083       .  S
C753        C754   1.406       .  A
C753        C758   1.396       .  A
C753        H763   1.082       .  S
C754        C755   1.410   1_554  A
C754        C759   1.488       .  S
C755        C756   1.398       .  A
C755        F760   1.358       .  S
C756        C757   1.405   1_556  A
C756        H761   1.083       .  S
C757        C758   1.405       .  A
C758        F762   1.357       .  S
C759        C764   1.412       .  A
C759        C768   1.406   1_554  A
C764        C765   1.399       .  A
C764        F769   1.357       .  S
C765        C766   1.401       .  A
C765        H770   1.083       .  S
C766        C767   1.402   1_554  A
C767        C768   1.394       .  A
C767        F771   1.358       .  S
C768        H772   1.082       .  S
