geometry optimzed in LAMMPS
_audit_creation_date              2020-11-30 
_audit_creation_method            'lammps2cif' 
_symmetry_space_group_name_H-M    'P1' 
_symmetry_Int_Tables_number       1 
_symmetry_cell_setting            triclinic 
loop_ 
_symmetry_equiv_pos_as_xyz 
  x,y,z 
_cell_length_a                    48.39846154 
_cell_length_b                    48.49223853555738 
_cell_length_c                    70.71562906939143 
_cell_angle_alpha                 89.78404004862517 
_cell_angle_beta                  90.00574683346109 
_cell_angle_gamma                 119.99990381773713 
loop_ 
_atom_site_label 
_atom_site_type_symbol 
_atom_site_fract_x 
_atom_site_fract_y 
_atom_site_fract_z 
_atom_site_charge 
C1          C  0.57098593  0.47946544  0.08796278     0.03100
C2          C  0.56306748  0.48663527  0.07016341    -0.13100
C3          C  0.53427653  0.46517254  0.06121161     0.00600
C4          C  0.51302374  0.43657270  0.07044810    -0.11600
C5          C  0.52047961  0.42867591  0.08816879     0.03100
C6          C  0.54968079  0.45031022  0.09668740    -0.11000
H7          H  0.57940730  0.50884841  0.06319412     0.08700
H8          H  0.49031659  0.42075922  0.06387658     0.06200
H9          H  0.55644799  0.44407528  0.10992095     0.06000
C10         C  0.44535107  0.50886515  0.90672429     0.03100
C11         C  0.46848523  0.53704054  0.89790307    -0.13100
C12         C  0.49809883  0.55691273  0.90647235     0.00600
C13         C  0.50452032  0.54819185  0.92421374    -0.11600
C14         C  0.48181467  0.52001888  0.93325204     0.03100
C15         C  0.45231129  0.50055453  0.92445090    -0.11000
H16         H  0.46341365  0.54360102  0.88424190     0.08700
H17         H  0.52750628  0.56285989  0.93082429     0.06200
H18         H  0.43453603  0.47932684  0.93169576     0.06000
O19         O  0.50127799  0.43894970  0.49177353    -0.73000
O20         O  0.53408577  0.52606343  0.46915077    -0.74000
O21         O  0.56011579  0.49635421  0.49226497    -0.62600
O22         O  0.47512168  0.46828084  0.46859300    -0.71000
O23         O  0.45933561  0.48278976  0.49426302    -0.70600
O24         O  0.54502501  0.51164659  0.51792755    -0.61800
O25         O  0.51901630  0.54097571  0.49495242    -0.74300
O26         O  0.48545786  0.45357424  0.51738408    -0.73100
Cu27       Cu  0.51815840  0.48191038  0.47955035     1.04600
Cu28       Cu  0.50164949  0.49778331  0.50702326     1.04300
C29         C  0.48842015  0.43255287  0.50818665     0.93200
C30         C  0.53182983  0.54734950  0.47852895     0.92300
C31         C  0.56597302  0.50826329  0.50885113     0.84500
C32         C  0.45374036  0.47095986  0.47763378     0.90800
O33         O  0.20434653  0.86275974  0.80335118    -0.73000
O34         O  0.17134576  0.77524062  0.82595778    -0.74000
O35         O  0.14492531  0.80378092  0.80242490    -0.62600
O36         O  0.23019917  0.83362853  0.82695689    -0.71000
O37         O  0.21369970  0.84794646  0.85239539    -0.70600
O38         O  0.12918799  0.81874144  0.82792833    -0.61800
O39         O  0.15543835  0.79018698  0.85137869    -0.74300
O40         O  0.18761926  0.87672107  0.82883913    -0.73100
Cu41       Cu  0.18829776  0.81837019  0.81374317     1.04600
Cu42       Cu  0.17094266  0.83392364  0.84097271     1.04300
C43         C  0.20099824  0.88354110  0.81258648     0.93200
C44         C  0.15844113  0.76905223  0.84236014     0.92300
C45         C  0.12350732  0.80651402  0.81142411     0.84500
C46         C  0.23522079  0.84507137  0.84367674     0.90800
C47         C  0.53476908  0.08272213  0.07878494     0.03100
C48         C  0.56451965  0.09106767  0.08680021    -0.13100
C49         C  0.58528667  0.08250871  0.07814211     0.00600
C50         C  0.57645613  0.06658300  0.06069553    -0.11600
C51         C  0.54742736  0.05912664  0.05204286     0.03100
C52         C  0.52653596  0.06687148  0.06130773    -0.11000
H53         H  0.57166912  0.10465043  0.09976605     0.08700
H54         H  0.59171630  0.05907486  0.05400764     0.06200
H55         H  0.50377234  0.06036166  0.05490286     0.06000
C56         C  0.49667671  0.90817207  0.90552167     0.03100
C57         C  0.46592650  0.89676455  0.89809889    -0.13100
C58         C  0.44521348  0.90627654  0.90572500     0.00600
C59         C  0.45525584  0.92675898  0.92137673    -0.11600
C60         C  0.48552109  0.93774112  0.92936138     0.03100
C61         C  0.50624752  0.92872702  0.92116542    -0.11000
H62         H  0.45781826  0.87991255  0.88655984     0.08700
H63         H  0.43974462  0.93473878  0.92717345     0.06200
H64         H  0.52977925  0.93753004  0.92711847     0.06000
C65         C  0.92540460  0.47200185  0.08155035     0.03100
C66         C  0.91936026  0.44341486  0.09020088    -0.13100
C67         C  0.92522273  0.42137887  0.08074829     0.00600
C68         C  0.93965508  0.42958907  0.06276022    -0.11600
C69         C  0.94754702  0.45891257  0.05421415     0.03100
C70         C  0.93979211  0.47969048  0.06360963    -0.11000
H71         H  0.90992931  0.43836909  0.10445345     0.08700
H72         H  0.94466425  0.41316159  0.05529624     0.06200
H73         H  0.94404340  0.50140937  0.05666072     0.06000
C74         C  0.08433751  0.50321546  0.90219381     0.03100
C75         C  0.06585263  0.49450785  0.91878907    -0.13100
C76         C  0.05596863  0.51471411  0.92663521     0.00600
C77         C  0.06390547  0.54335926  0.91731598    -0.11600
C78         C  0.08332143  0.55309882  0.90107430     0.03100
C79         C  0.09333162  0.53270409  0.89360930    -0.11000
H80         H  0.05969458  0.47226127  0.92579580     0.08700
H81         H  0.05507839  0.55825061  0.92291750     0.06200
H82         H  0.10919662  0.54020072  0.88151605     0.06000
O83         O  0.84031703  0.10508759  0.15858759    -0.73000
O84         O  0.87005127  0.19095216  0.13469406    -0.74000
O85         O  0.89823187  0.16396973  0.15830605    -0.62600
O86         O  0.81248168  0.13201323  0.13482892    -0.71000
O87         O  0.79509138  0.14469312  0.16053605    -0.70600
O88         O  0.88290205  0.18095106  0.18309366    -0.61800
O89         O  0.85157450  0.20461064  0.15951175    -0.74300
O90         O  0.82602832  0.12072641  0.18438364    -0.73100
Cu91       Cu  0.85583892  0.14746636  0.14574583     1.04600
Cu92       Cu  0.83837458  0.16325739  0.17279621     1.04300
C93         C  0.82881670  0.09946274  0.17535802     0.93200
C94         C  0.86465485  0.21104202  0.14317454     0.92300
C95         C  0.90422020  0.17762432  0.17439007     0.84500
C96         C  0.79033378  0.13353566  0.14374340     0.90800
C97         C  0.19606034  0.75292851  0.41514049     0.03100
C98         C  0.18989907  0.76110309  0.39715367    -0.13100
C99         C  0.21172945  0.79017435  0.38851211     0.00600
C100        C  0.24028869  0.81085218  0.39792028    -0.11600
C101        C  0.24681855  0.80330982  0.41596041     0.03100
C102        C  0.22421827  0.77464213  0.42455693    -0.11000
H103        H  0.16822319  0.74478493  0.38978496     0.08700
H104        H  0.25783298  0.83249729  0.39092329     0.06200
H105        H  0.22852142  0.76929314  0.43876308     0.06000
C106        C  0.17062444  0.88036206  0.23416197     0.03100
C107        C  0.14090592  0.85946654  0.22595873    -0.13100
C108        C  0.11858180  0.83104559  0.23518736     0.00600
C109        C  0.12695299  0.82361175  0.25281507    -0.11600
C110        C  0.15689615  0.84379297  0.26096870     0.03100
C111        C  0.17859184  0.87170759  0.25141414    -0.11000
H112        H  0.13493580  0.86577717  0.21251822     0.08700
H113        H  0.10984259  0.80279395  0.26063906     0.06200
H114        H  0.20189418  0.88681525  0.25754907     0.06000
C115        C  0.18625932  0.39407287  0.42012100     0.03100
C116        C  0.17763900  0.37671764  0.40312085    -0.13100
C117        C  0.19876125  0.36914855  0.39393943     0.00600
C118        C  0.22843665  0.37830404  0.40229288    -0.11600
C119        C  0.23777056  0.39593947  0.41914013     0.03100
C120        C  0.21658448  0.40391648  0.42781475    -0.11000
H121        H  0.15453850  0.36926315  0.39690870     0.08700
H122        H  0.24415510  0.37125327  0.39573569     0.06200
H123        H  0.22411865  0.41871253  0.44030734     0.06000
C124        C  0.16300638  0.23870004  0.24012864     0.03100
C125        C  0.16952417  0.25347254  0.25795187    -0.13100
C126        C  0.14761323  0.26026375  0.26678796     0.00600
C127        C  0.11903110  0.25256049  0.25743853    -0.11600
C128        C  0.11231707  0.23865671  0.23936449     0.03100
C129        C  0.13451422  0.23181502  0.23091979    -0.11000
H130        H  0.19154883  0.25939512  0.26513030     0.08700
H131        H  0.10201125  0.25749828  0.26431828     0.06200
H132        H  0.12947156  0.22081797  0.21714783     0.06000
O133        O  0.35989616  0.13482141  0.13625474    -0.73000
O134        O  0.30186325  0.16043399  0.16170231    -0.74000
O135        O  0.35690734  0.19162630  0.13830677    -0.62600
O136        O  0.30475983  0.10308861  0.15967518    -0.71000
O137        O  0.33554905  0.11818894  0.18514054    -0.70600
O138        O  0.38742994  0.20639927  0.16388969    -0.61800
O139        O  0.33256146  0.17472078  0.18720595    -0.74300
O140        O  0.39042618  0.14919431  0.16183401    -0.73100
Cu141      Cu  0.32975935  0.14696809  0.14809396     1.04600
Cu142      Cu  0.36258143  0.16262813  0.17537374     1.04300
C143        C  0.38435208  0.13794281  0.14506615     0.93200
C144        C  0.30806202  0.17164168  0.17848645     0.92300
C145        C  0.38035535  0.21300831  0.14772081     0.84500
C146        C  0.31190038  0.09673743  0.17590733     0.90800
O147        O  0.96619843  0.49671078  0.49302221    -0.73000
O148        O  0.02071144  0.46412090  0.47095025    -0.74000
O149        O  0.96518082  0.43831733  0.49427031    -0.62600
O150        O  0.02140089  0.52307043  0.46962593    -0.71000
O151        O  0.05277078  0.53809071  0.49487261    -0.70600
O152        O  0.99567222  0.45417348  0.51991938    -0.61800
O153        O  0.05057110  0.47874705  0.49680789    -0.74300
O154        O  0.99744793  0.51368755  0.51829420    -0.73100
Cu155      Cu  0.99233925  0.48002576  0.48106106     1.04600
Cu156      Cu  0.02518437  0.49679909  0.50836489     1.04300
C157        C  0.97298427  0.51003476  0.50922891     0.93200
C158        C  0.04413928  0.46605934  0.48041887     0.92300
C159        C  0.97139504  0.43300056  0.51100041     0.84500
C160        C  0.04629433  0.54381205  0.47829632     0.90800
C161        C  0.82600961  0.57256134  0.57257326     0.03100
C162        C  0.79751458  0.56636774  0.56371821    -0.13100
C163        C  0.77484483  0.57140103  0.57305340     0.00600
C164        C  0.78198927  0.58509317  0.59115383    -0.11600
C165        C  0.81115175  0.59314815  0.59994646     0.03100
C166        C  0.83273904  0.58627708  0.59066987    -0.11000
H167        H  0.79286095  0.55752313  0.54936759     0.08700
H168        H  0.76457858  0.58877271  0.59862929     0.06200
H169        H  0.85475649  0.59157794  0.59761744     0.06000
C170        C  0.85855723  0.73383790  0.75038395     0.03100
C171        C  0.88651005  0.73941343  0.75973304    -0.13100
C172        C  0.90941520  0.73413137  0.75081616     0.00600
C173        C  0.90237083  0.72002889  0.73280852    -0.11600
C174        C  0.87323391  0.71151887  0.72385110     0.03100
C175        C  0.85185965  0.71928918  0.73252640    -0.11000
H176        H  0.89050647  0.74820113  0.77407786     0.08700
H177        H  0.91975673  0.71624408  0.72542416     0.06200
H178        H  0.83007489  0.71403990  0.72531136     0.06000
O179        O  0.66816684  0.78819086  0.85220179    -0.73000
O180        O  0.72250863  0.87392410  0.82859709    -0.74000
O181        O  0.66800198  0.84626635  0.85267489    -0.62600
O182        O  0.72261552  0.81611278  0.82811105    -0.71000
O183        O  0.69124112  0.80069449  0.80286691    -0.70600
O184        O  0.63656063  0.83129319  0.82749514    -0.61800
O185        O  0.69104965  0.85931453  0.80339875    -0.74300
O186        O  0.63697864  0.77282845  0.82688687    -0.73100
Cu187      Cu  0.69637661  0.83165252  0.84126253     1.04600
Cu188      Cu  0.66280907  0.81550435  0.81428045     1.04300
C189        C  0.64396190  0.76690510  0.84327824     0.93200
C190        C  0.71575867  0.88008512  0.81222146     0.92300
C191        C  0.64348563  0.84336434  0.84405678     0.84500
C192        C  0.71580596  0.80391529  0.81159522     0.90800
C193        C  0.78207789  0.16766858  0.57134888     0.03100
C194        C  0.79232301  0.15901694  0.58782531    -0.13100
C195        C  0.82128314  0.18049046  0.59658190     0.00600
C196        C  0.84044987  0.21068593  0.58845022    -0.11600
C197        C  0.83100967  0.21970792  0.57186952     0.03100
C198        C  0.80183069  0.19798423  0.56344091    -0.11000
H199        H  0.77747357  0.13575424  0.59409766     0.08700
H200        H  0.86261944  0.22736425  0.59524725     0.06200
H201        H  0.79423803  0.20496344  0.55081365     0.06000
C202        C  0.86318108  0.09100367  0.75025205     0.03100
C203        C  0.89062520  0.11357520  0.75981854    -0.13100
C204        C  0.91327808  0.14195103  0.75097745     0.00600
C205        C  0.90702808  0.14869201  0.73263383    -0.11600
C206        C  0.87898674  0.12709068  0.72309876     0.03100
C207        C  0.85743920  0.09812319  0.73190237    -0.11000
H208        H  0.89445719  0.10894711  0.77428785     0.08700
H209        H  0.92441035  0.17020503  0.72545244     0.06200
H210        H  0.83632955  0.08105280  0.72435060     0.06000
O211        O  0.84755967  0.60817874  0.16349226    -0.73000
O212        O  0.82431619  0.66789654  0.18875800    -0.74000
O213        O  0.79130499  0.61289906  0.16552646    -0.62600
O214        O  0.88061774  0.66334615  0.18681645    -0.71000
O215        O  0.89442169  0.69555937  0.16194398    -0.70600
O216        O  0.80755171  0.64169012  0.13919466    -0.61800
O217        O  0.83660129  0.69689351  0.16252383    -0.74300
O218        O  0.86572871  0.64062890  0.13867558    -0.73100
Cu219      Cu  0.83540072  0.63696627  0.17704695     1.04600
Cu220      Cu  0.85159657  0.66972499  0.14969864     1.04300
C221        C  0.86070160  0.61522024  0.14716593     0.93200
C222        C  0.82654979  0.69171876  0.17960432     0.92300
C223        C  0.78552295  0.61899335  0.14884080     0.84500
C224        C  0.90140151  0.68806627  0.17787242     0.90800
C225        C  0.60189289  0.81234873  0.41952197     0.03100
C226        C  0.61798448  0.82050487  0.40203005    -0.13100
C227        C  0.62646903  0.79995456  0.39306351     0.00600
C228        C  0.61930084  0.77116556  0.40196388    -0.11600
C229        C  0.60314402  0.76238089  0.41939546     0.03100
C230        C  0.59432879  0.78301382  0.42793785    -0.11000
H231        H  0.62458805  0.84320074  0.39548485     0.08700
H232        H  0.62602831  0.75539993  0.39517410     0.06200
H233        H  0.58076301  0.77575080  0.44097716     0.06000
C234        C  0.76156077  0.83884216  0.24026741     0.03100
C235        C  0.74347345  0.83019339  0.25703874    -0.13100
C236        C  0.73331637  0.85013936  0.26501767     0.00600
C237        C  0.74058677  0.87866774  0.25569335    -0.11600
C238        C  0.75873836  0.88788590  0.23893504     0.03100
C239        C  0.76946525  0.86797624  0.23156335    -0.11000
H240        H  0.73676048  0.80761800  0.26379339     0.08700
H241        H  0.73237789  0.89384888  0.26164574     0.06200
H242        H  0.78474655  0.87558205  0.21920698     0.06000
O243        O  0.47477378  0.97806195  0.47165920    -0.73000
O244        O  0.56118604  0.03373518  0.49519906    -0.74000
O245        O  0.53386714  0.97869235  0.47177715    -0.62600
O246        O  0.50222902  0.03335525  0.49484376    -0.71000
O247        O  0.48398636  0.00082661  0.51962163    -0.70600
O248        O  0.52106173  0.94961440  0.49799778    -0.61800
O249        O  0.54445449  0.00430303  0.52126049    -0.74300
O250        O  0.46090447  0.94587700  0.49658480    -0.73100
Cu251      Cu  0.51856360  0.00708021  0.48247752     1.04600
Cu252      Cu  0.50207880  0.97414817  0.50977058     1.04300
C253        C  0.45451854  0.95268307  0.48029779     0.93200
C254        C  0.56632592  0.02787896  0.51208993     0.92300
C255        C  0.53271748  0.95565327  0.48126746     0.84500
C256        C  0.48762566  0.02542918  0.51071338     0.90800
C257        C  0.41399116  0.16712872  0.56905570     0.03100
C258        C  0.42163007  0.19617531  0.56032085    -0.13100
C259        C  0.41681559  0.21906673  0.56959792     0.00600
C260        C  0.40199654  0.21144313  0.58746664    -0.11600
C261        C  0.39247598  0.18178270  0.59601749     0.03100
C262        C  0.39913558  0.16006909  0.58687657    -0.11000
H263        H  0.43131346  0.20088803  0.54613189     0.08700
H264        H  0.39783772  0.22854035  0.59482977     0.06200
H265        H  0.39354016  0.13803843  0.59396097     0.06000
C266        C  0.26523637  0.14589480  0.75092230     0.03100
C267        C  0.27696539  0.15146089  0.73231505    -0.13100
C268        C  0.28391676  0.12993969  0.72323899     0.00600
C269        C  0.27771297  0.10178098  0.73262781    -0.11600
C270        C  0.26605802  0.09569461  0.75128986     0.03100
C271        C  0.26120269  0.11861991  0.76046583    -0.11000
H272        H  0.27986833  0.17204432  0.72456422     0.08700
H273        H  0.28188983  0.08464566  0.72530244     0.06200
H274        H  0.25402235  0.11511102  0.77516700     0.06000
O275        O  0.22926183  0.37142590  0.82600163    -0.73000
O276        O  0.14249892  0.31302069  0.80457942    -0.74000
O277        O  0.16947161  0.36866785  0.82691063    -0.62600
O278        O  0.20249753  0.31532084  0.80355085    -0.71000
O279        O  0.18799542  0.28497589  0.82931773    -0.70600
O280        O  0.15789918  0.33970682  0.85316085    -0.61800
O281        O  0.12931032  0.28364195  0.83073129    -0.74300
O282        O  0.21671176  0.34064900  0.85152750    -0.73100
Cu283      Cu  0.18640979  0.34314872  0.81432622     1.04600
Cu284      Cu  0.17253241  0.31125085  0.84208810     1.04300
C285        C  0.23666890  0.36518622  0.84216670     0.93200
C286        C  0.12220032  0.28914227  0.81427907     0.92300
C287        C  0.15882330  0.36278102  0.84385011     0.84500
C288        C  0.19997337  0.29137315  0.81270956     0.90800
C289        C  0.25561590  0.16742845  0.76017336    -0.01300
C290        C  0.22958933  0.15475722  0.77267866    -0.09400
C291        C  0.22021108  0.17424823  0.78165019    -0.18200
C292        C  0.23618872  0.20735448  0.77815744     0.04200
C293        C  0.26142672  0.22006019  0.76472541     0.18400
C294        C  0.27135307  0.20027154  0.75621551    -0.19600
C295        C  0.27635394  0.25235801  0.75975654    -0.20900
C296        C  0.26650644  0.27222578  0.76776305    -0.19400
C297        C  0.24237566  0.26056095  0.78148274     0.19800
C298        C  0.22750404  0.22812298  0.78723925     0.01900
C299        C  0.20492582  0.21792930  0.80207848    -0.14200
C300        C  0.19662527  0.23875928  0.81036295    -0.11900
C301        C  0.21016420  0.27027743  0.80406108     0.01400
C302        C  0.23314239  0.28114028  0.78963603    -0.24100
H303        H  0.21583736  0.12939493  0.77538788     0.09400
H304        H  0.19972842  0.16247873  0.79081124     0.13000
H305        H  0.29145052  0.21060688  0.74656485     0.11700
H306        H  0.29542485  0.26220589  0.74938853     0.12900
H307        H  0.27815654  0.29697974  0.76339440     0.12000
H308        H  0.19367533  0.19418018  0.80786540     0.09000
H309        H  0.17905603  0.22991918  0.82162573     0.12300
H310        H  0.24419885  0.30572801  0.78497501     0.14200
C311        C  0.37560305  0.17344007  0.61452149    -0.01300
C312        C  0.34971184  0.14280403  0.61768230    -0.09400
C313        C  0.33334256  0.13475544  0.63488437    -0.18200
C314        C  0.34235869  0.15726367  0.64962296     0.04200
C315        C  0.36863635  0.18834311  0.64634115     0.18400
C316        C  0.38492881  0.19606861  0.62897646    -0.19600
C317        C  0.37864006  0.21154822  0.66043483    -0.20900
C318        C  0.36329111  0.20450688  0.67785400    -0.19400
C319        C  0.33757313  0.17408041  0.68161390     0.19800
C320        C  0.32652558  0.15002607  0.66753583     0.01900
C321        C  0.30034188  0.11973073  0.67211288    -0.14200
C322        C  0.28638891  0.11342009  0.69004771    -0.11900
C323        C  0.29779857  0.13703936  0.70394349     0.01400
C324        C  0.32312828  0.16744971  0.69952498    -0.24100
H325        H  0.34173127  0.12500059  0.60666288     0.09400
H326        H  0.31372598  0.11072965  0.63615685     0.13000
H327        H  0.40522822  0.21970698  0.62680975     0.11700
H328        H  0.39859721  0.23529319  0.65800234     0.12900
H329        H  0.37175555  0.22294918  0.68851821     0.12000
H330        H  0.29019521  0.10030931  0.66222034     0.09000
H331        H  0.26646782  0.08991337  0.69305524     0.12300
H332        H  0.33220618  0.18581238  0.71026385     0.14200
C333        C  0.42276929  0.14492799  0.55984414    -0.01300
C334        C  0.40339400  0.11180914  0.56170701    -0.09400
C335        C  0.41230862  0.09114887  0.55358738    -0.18200
C336        C  0.44097334  0.10297559  0.54312040     0.04200
C337        C  0.46002729  0.13650250  0.54079211     0.18400
C338        C  0.45109570  0.15695555  0.54931677    -0.19600
C339        C  0.48805861  0.14955579  0.53003527    -0.20900
C340        C  0.49774686  0.13000877  0.52154500    -0.19400
C341        C  0.48006000  0.09696395  0.52397695     0.19800
C342        C  0.45154381  0.08289558  0.53493561     0.01900
C343        C  0.43534559  0.04946101  0.53753952    -0.14200
C344        C  0.44721223  0.03096518  0.52977126    -0.11900
C345        C  0.47505362  0.04499196  0.51881567     0.01400
C346        C  0.49111982  0.07794469  0.51577233    -0.24100
H347        H  0.38103698  0.10169678  0.56936619     0.09400
H348        H  0.39609767  0.06605031  0.55559421     0.13000
H349        H  0.46670120  0.18246601  0.54797378     0.11700
H350        H  0.50257302  0.17510280  0.52812173     0.12900
H351        H  0.51954010  0.14087241  0.51326545     0.12000
H352        H  0.41382360  0.03697537  0.54581358     0.09000
H353        H  0.43437389  0.00547781  0.53220473     0.12300
H354        H  0.51288306  0.08895043  0.50744429     0.14200
C355        C  0.59301616  0.83432273  0.42905500    -0.01300
C356        C  0.59359806  0.83658440  0.44884616    -0.09400
C357        C  0.58475820  0.85648289  0.45799389    -0.18200
C358        C  0.57524444  0.87531011  0.44763002     0.04200
C359        C  0.57569061  0.87386877  0.42756208     0.18400
C360        C  0.58408613  0.85327280  0.41853215    -0.19600
C361        C  0.56769959  0.89296621  0.41660309    -0.20900
C362        C  0.55912721  0.91340341  0.42514199    -0.19400
C363        C  0.55760960  0.91474596  0.44486126     0.19800
C364        C  0.56536785  0.89552254  0.45642044     0.01900
C365        C  0.56227594  0.89693760  0.47624491    -0.14200
C366        C  0.55182330  0.91647410  0.48418951    -0.11900
C367        C  0.54455443  0.93561925  0.47275172     0.01400
C368        C  0.54781743  0.93483721  0.45308087    -0.24100
H369        H  0.60131757  0.82314683  0.45741730     0.09400
H370        H  0.58605610  0.85689541  0.47320493     0.13000
H371        H  0.58319975  0.85174786  0.40324035     0.11700
H372        H  0.56819058  0.89218088  0.40129684     0.12900
H373        H  0.55317550  0.92792712  0.41624018     0.12000
H374        H  0.56715075  0.88278966  0.48599663     0.09000
H375        H  0.54947667  0.91661468  0.49941764     0.12300
H376        H  0.54190077  0.94929031  0.44407801     0.14200
C377        C  0.64206040  0.80815011  0.37415043    -0.01300
C378        C  0.63083849  0.82024238  0.35994025    -0.09400
C379        C  0.64444838  0.82694173  0.34189501    -0.18200
C380        C  0.67002337  0.82182670  0.33741932     0.04200
C381        C  0.68170510  0.81006484  0.35198939     0.18400
C382        C  0.66764013  0.80325490  0.37005911    -0.19600
C383        C  0.70738662  0.80517780  0.34845790    -0.20900
C384        C  0.72183283  0.81177011  0.33075251    -0.19400
C385        C  0.71080586  0.82317106  0.31607048     0.19800
C386        C  0.68458351  0.82815378  0.31910607     0.01900
C387        C  0.67417582  0.83928152  0.30366752    -0.14200
C388        C  0.68967996  0.84593653  0.28616994    -0.11900
C389        C  0.71591524  0.84161115  0.28337431     0.01400
C390        C  0.72610171  0.82988727  0.29838200    -0.24100
H391        H  0.61094208  0.82399140  0.36268837     0.09400
H392        H  0.63438431  0.83610002  0.33178079     0.13000
H393        H  0.67681298  0.79434788  0.38104091     0.11700
H394        H  0.71646128  0.79629430  0.35950108     0.12900
H395        H  0.74178860  0.80789324  0.32852310     0.12000
H396        H  0.65413779  0.84311198  0.30463338     0.09000
H397        H  0.68098643  0.85442165  0.27471384     0.12300
H398        H  0.74653939  0.82667907  0.29642270     0.14200
C399        C  0.81770390  0.71351217  0.18893119    -0.01300
C400        C  0.81578723  0.71395820  0.20867787    -0.09400
C401        C  0.80767434  0.73449866  0.21769425    -0.18200
C402        C  0.80075552  0.75517143  0.20717406     0.04200
C403        C  0.80236006  0.75435955  0.18710957     0.18400
C404        C  0.81116178  0.73398134  0.17823604    -0.19600
C405        C  0.79481144  0.77362080  0.17600112    -0.20900
C406        C  0.78526740  0.79341280  0.18437231    -0.19400
C407        C  0.78360894  0.79490172  0.20407644     0.19800
C408        C  0.79182353  0.77621899  0.21579322     0.01900
C409        C  0.79072879  0.77946739  0.23560878    -0.14200
C410        C  0.78125294  0.79986222  0.24341083    -0.11900
C411        C  0.77227871  0.81759101  0.23183261     0.01400
C412        C  0.77365387  0.81495548  0.21211926    -0.24100
H413        H  0.82083710  0.69846831  0.21727259     0.09400
H414        H  0.80661885  0.73328335  0.23290817     0.13000
H415        H  0.81235445  0.73365774  0.16293132     0.11700
H416        H  0.79592279  0.77309421  0.16070685     0.12900
H417        H  0.77921737  0.80773810  0.17535683     0.12000
H418        H  0.79737464  0.76684523  0.24549145     0.09000
H419        H  0.78131865  0.80197418  0.25864983     0.12300
H420        H  0.76649528  0.82819888  0.20292394     0.14200
C421        C  0.94388874  0.16351784  0.76073940    -0.01300
C422        C  0.95839917  0.15068834  0.77220250    -0.09400
C423        C  0.98673292  0.17031553  0.78173213    -0.18200
C424        C  0.00207554  0.20375544  0.77987596     0.04200
C425        C  0.98813941  0.21674327  0.76763236     0.18400
C426        C  0.95907833  0.19670692  0.75850059    -0.19600
C427        C  0.00350394  0.24962643  0.76440128    -0.20900
C428        C  0.03278518  0.26983909  0.77276951    -0.19400
C429        C  0.04683575  0.25779471  0.78511676     0.19800
C430        C  0.03117709  0.22469033  0.78933349     0.01900
C431        C  0.04523434  0.21404025  0.80293365    -0.14200
C432        C  0.07431367  0.23519945  0.81132559    -0.11900
C433        C  0.09050092  0.26743856  0.80626726     0.01400
C434        C  0.07651764  0.27866547  0.79328409    -0.24100
H435        H  0.94806883  0.12516618  0.77364917     0.09400
H436        H  0.99648110  0.15852175  0.79002868     0.13000
H437        H  0.94827003  0.20706764  0.74969328     0.11700
H438        H  0.99311794  0.25971966  0.75503282     0.12900
H439        H  0.04442132  0.29510731  0.76966231     0.12000
H440        H  0.03418724  0.18958986  0.80754675     0.09000
H441        H  0.08456892  0.22612514  0.82150324     0.12300
H442        H  0.08866275  0.30378088  0.78965670     0.14200
C443        C  0.59772436  0.04820831  0.52115062    -0.01300
C444        C  0.60156059  0.04525708  0.54056080    -0.09400
C445        C  0.63098730  0.06397362  0.54931541    -0.18200
C446        C  0.65789138  0.08629073  0.53885809     0.04200
C447        C  0.65413338  0.08866196  0.51907504     0.18400
C448        C  0.62418588  0.07005810  0.51049631    -0.19600
C449        C  0.68037307  0.10932925  0.50793532    -0.20900
C450        C  0.71038183  0.12751566  0.51599321    -0.19400
C451        C  0.71473116  0.12618764  0.53548289     0.19800
C452        C  0.68844129  0.10602004  0.54725849     0.01900
C453        C  0.69380244  0.10684216  0.56695360    -0.14200
C454        C  0.72400609  0.12656901  0.57457613    -0.11900
C455        C  0.75016242  0.14585296  0.56291507     0.01400
C456        C  0.74521724  0.14524242  0.54329026    -0.24100
H457        H  0.58163158  0.02838289  0.54911951     0.09400
H458        H  0.63198959  0.06000466  0.56423549     0.13000
H459        H  0.62164123  0.07222270  0.49541519     0.11700
H460        H  0.67774964  0.11117609  0.49283666     0.12900
H461        H  0.73026694  0.14303095  0.50693858     0.12000
H462        H  0.67497423  0.09315039  0.57692776     0.09000
H463        H  0.72660245  0.12718287  0.58979644     0.12300
H464        H  0.76511108  0.15967537  0.53397412     0.14200
C465        C  0.83100047  0.17197824  0.61463754    -0.01300
C466        C  0.82674407  0.14148732  0.61748722    -0.09400
C467        C  0.83533339  0.13331766  0.63458599    -0.18200
C468        C  0.84848566  0.15552252  0.64952786     0.04200
C469        C  0.85295662  0.18649458  0.64649345     0.18400
C470        C  0.84426138  0.19436129  0.62923746    -0.19600
C471        C  0.86570095  0.20939270  0.66078316    -0.20900
C472        C  0.87371200  0.20209285  0.67821217    -0.19400
C473        C  0.86930320  0.17175141  0.68176287     0.19800
C474        C  0.85691825  0.14806520  0.66743852     0.01900
C475        C  0.85321974  0.11789740  0.67178363    -0.14200
C476        C  0.86072246  0.11135998  0.68969916    -0.11900
C477        C  0.87230956  0.13459105  0.70385214     0.01400
C478        C  0.87687580  0.16486485  0.69968770    -0.24100
H479        H  0.81692226  0.12387066  0.60636707     0.09400
H480        H  0.83121022  0.10938592  0.63567713     0.13000
H481        H  0.84717109  0.21786816  0.62734317     0.11700
H482        H  0.86923574  0.23306638  0.65852273     0.12900
H483        H  0.88323905  0.22027114  0.68904449     0.12000
H484        H  0.84445734  0.09877722  0.66169413     0.09000
H485        H  0.85755240  0.08796625  0.69247723     0.12300
H486        H  0.88564769  0.18292615  0.71060385     0.14200
C487        C  0.73739307  0.91115442  0.80334255    -0.01300
C488        C  0.76974903  0.92723013  0.80815238    -0.09400
C489        C  0.79096262  0.95617387  0.79964843    -0.18200
C490        C  0.78034489  0.97035519  0.78613924     0.04200
C491        C  0.74725623  0.95447264  0.78174324     0.18400
C492        C  0.72625207  0.92480152  0.79004845    -0.19600
C493        C  0.73534809  0.96849586  0.76926531    -0.20900
C494        C  0.75558235  0.99813775  0.76118682    -0.19400
C495        C  0.78838540  0.01399633  0.76489245     0.19800
C496        C  0.80130553  0.99996233  0.77709701     0.01900
C497        C  0.83472531  0.01595173  0.77952985    -0.14200
C498        C  0.85435381  0.04502104  0.77066609    -0.11900
C499        C  0.84155539  0.05961096  0.75927263     0.01400
C500        C  0.80841647  0.04375387  0.75637923    -0.24100
H501        H  0.77887048  0.91712092  0.81839993     0.09400
H502        H  0.81540649  0.96708356  0.80423789     0.13000
H503        H  0.70111307  0.91262300  0.78645808     0.11700
H504        H  0.71013301  0.95666007  0.76593376     0.12900
H505        H  0.74555331  0.00855952  0.75179785     0.12000
H506        H  0.84658609  0.00631301  0.78784671     0.09000
H507        H  0.87988869  0.05590113  0.77258794     0.12300
H508        H  0.79807468  0.05462582  0.74761358     0.14200
C509        C  0.73694804  0.79407359  0.80252007    -0.01300
C510        C  0.76928935  0.80939836  0.80732790    -0.09400
C511        C  0.78985687  0.80083379  0.79882013    -0.18200
C512        C  0.77855285  0.77610821  0.78532906     0.04200
C513        C  0.74547816  0.75992368  0.78091036     0.18400
C514        C  0.72516858  0.76944946  0.78920185    -0.19600
C515        C  0.73285864  0.73406653  0.76847354    -0.20900
C516        C  0.75233111  0.72360753  0.76055744    -0.19400
C517        C  0.78510798  0.73943517  0.76436097     0.19800
C518        C  0.79877858  0.76645484  0.77639299     0.01900
C519        C  0.83219014  0.78293003  0.77878458    -0.14200
C520        C  0.85107355  0.77241345  0.77015032    -0.11900
C521        C  0.83752942  0.74472140  0.75909688     0.01400
C522        C  0.80435696  0.72849047  0.75615586    -0.24100
H523        H  0.77887644  0.82843609  0.81762176     0.09400
H524        H  0.81432148  0.81357763  0.80343845     0.13000
H525        H  0.70001676  0.75717715  0.78564119     0.11700
H526        H  0.70764602  0.72149202  0.76510106     0.12900
H527        H  0.74172493  0.70317736  0.75124900     0.12000
H528        H  0.84462623  0.80452805  0.78687246     0.09000
H529        H  0.87665761  0.78652727  0.77200107     0.12300
H530        H  0.79331176  0.70712606  0.74763518     0.14200
C531        C  0.81925419  0.60892031  0.61874779    -0.01300
C532        C  0.83482714  0.60061760  0.63241177    -0.09400
C533        C  0.84404924  0.61652910  0.64968383    -0.18200
C534        C  0.83794357  0.64147736  0.65393471     0.04200
C535        C  0.82164034  0.64945211  0.64016674     0.18400
C536        C  0.81245474  0.63318916  0.62285911    -0.19600
C537        C  0.81491148  0.67388667  0.64363854    -0.20900
C538        C  0.82416913  0.69077095  0.66048849    -0.19400
C539        C  0.84032112  0.68359914  0.67432119     0.19800
C540        C  0.84745022  0.65883976  0.67128145     0.01900
C541        C  0.86378732  0.65259957  0.68574723    -0.14200
C542        C  0.87229127  0.66992643  0.70254081    -0.11900
C543        C  0.86506809  0.69418892  0.70554092     0.01400
C544        C  0.84925780  0.70101834  0.69124416    -0.24100
H545        H  0.83986535  0.58158008  0.62977747     0.09400
H546        H  0.85599447  0.60876232  0.65935302     0.13000
H547        H  0.80071972  0.64007114  0.61233341     0.11700
H548        H  0.80247139  0.68006678  0.63321013     0.12900
H549        H  0.81861753  0.70957492  0.66272271     0.12000
H550        H  0.87012859  0.63431545  0.68462708     0.09000
H551        H  0.88407404  0.66380625  0.71342617     0.12300
H552        H  0.84398609  0.72006728  0.69323154     0.14200
C553        C  0.95166347  0.52023610  0.51769830    -0.01300
C554        C  0.91946895  0.50487491  0.51251683    -0.09400
C555        C  0.89841711  0.51281004  0.52100776    -0.18200
C556        C  0.90904967  0.53685590  0.53489996     0.04200
C557        C  0.94207589  0.55354946  0.53942465     0.18400
C558        C  0.96289575  0.54466673  0.53113813    -0.19600
C559        C  0.95406427  0.57906834  0.55209759    -0.20900
C560        C  0.93391844  0.58843101  0.56031853    -0.19400
C561        C  0.90108444  0.57166626  0.55668250     0.19800
C562        C  0.88812795  0.54515026  0.54427117     0.01900
C563        C  0.85468153  0.52752683  0.54212955    -0.14200
C564        C  0.83501921  0.53634069  0.55150374    -0.11900
C565        C  0.84778866  0.56345804  0.56302836     0.01400
C566        C  0.88103477  0.58098937  0.56556363    -0.24100
H567        H  0.91028953  0.48608320  0.50206658     0.09400
H568        H  0.87408644  0.50003340  0.51615645     0.13000
H569        H  0.98793574  0.55704834  0.53495910     0.11700
H570        H  0.97925871  0.59212630  0.55549642     0.12900
H571        H  0.94400334  0.60854237  0.56987114     0.12000
H572        H  0.84285042  0.50618034  0.53377676     0.09000
H573        H  0.80947960  0.52131880  0.54988244     0.12300
H574        H  0.89147348  0.60199595  0.57439611     0.14200
C575        C  0.95022400  0.40222081  0.52012760    -0.01300
C576        C  0.91722509  0.38750704  0.51760365    -0.09400
C577        C  0.89685743  0.35849449  0.52640096    -0.18200
C578        C  0.90910586  0.34291754  0.53768652     0.04200
C579        C  0.94278163  0.35757209  0.53963907     0.18400
C580        C  0.96289954  0.38732063  0.53125705    -0.19600
C581        C  0.95618472  0.34220080  0.54965832    -0.20900
C582        C  0.93684047  0.31223037  0.55752748    -0.19400
C583        C  0.90359666  0.29742718  0.55613562     0.19800
C584        C  0.88922551  0.31296629  0.54667682     0.01900
C585        C  0.85558581  0.29792721  0.54672918    -0.14200
C586        C  0.83702442  0.26815704  0.55514809    -0.11900
C587        C  0.85117679  0.25203916  0.56357675     0.01400
C588        C  0.88461239  0.26708432  0.56412890    -0.24100
H589        H  0.90709715  0.39873671  0.50896625     0.09400
H590        H  0.87173693  0.34852972  0.52371700     0.13000
H591        H  0.98855248  0.39851692  0.53293528     0.11700
H592        H  0.98183680  0.35315996  0.55110170     0.12900
H593        H  0.94795708  0.30065078  0.56487838     0.12000
H594        H  0.84288642  0.30880936  0.54069350     0.09000
H595        H  0.81136429  0.25788783  0.55517801     0.12300
H596        H  0.89602612  0.25502618  0.57055034     0.14200
C597        C  0.18528417  0.22940279  0.23142322    -0.01300
C598        C  0.20218211  0.21915949  0.24282967    -0.09400
C599        C  0.22251641  0.20970503  0.23489135    -0.18200
C600        C  0.22626962  0.20951916  0.21508333     0.04200
C601        C  0.20827603  0.21875377  0.20349350     0.18400
C602        C  0.18877830  0.22931345  0.21168481    -0.19600
C603        C  0.20955294  0.21705673  0.18377724    -0.20900
C604        C  0.22826430  0.20622133  0.17530500    -0.19400
C605        C  0.24706768  0.19793312  0.18631035     0.19800
C606        C  0.24684906  0.20007569  0.20635573     0.01900
C607        C  0.26767966  0.19324068  0.21675742    -0.14200
C608        C  0.28746843  0.18419911  0.20764283    -0.11900
C609        C  0.28689212  0.18118922  0.18793641     0.01400
C610        C  0.26649770  0.18797061  0.17735717    -0.24100
H611        H  0.19924166  0.21772593  0.25803862     0.09400
H612        H  0.23425326  0.20179115  0.24463535     0.13000
H613        H  0.17631057  0.23745312  0.20255386     0.11700
H614        H  0.19564209  0.22375276  0.17484389     0.12900
H615        H  0.22842498  0.20480914  0.16001610     0.12000
H616        H  0.26974838  0.19531257  0.23192088     0.09000
H617        H  0.30319228  0.17932393  0.21612512     0.12300
H618        H  0.26629599  0.18623370  0.16206904     0.14200
C619        C  0.06410149  0.45381404  0.47230800    -0.01300
C620        C  0.08392912  0.44772682  0.48392145    -0.09400
C621        C  0.10321459  0.43666825  0.47627377    -0.18200
C622        C  0.10362101  0.43174781  0.45658426     0.04200
C623        C  0.08366993  0.43829915  0.44487766     0.18400
C624        C  0.06392951  0.44875838  0.45280996    -0.19600
C625        C  0.08387437  0.43488816  0.42525405    -0.20900
C626        C  0.10392554  0.42564458  0.41690182    -0.19400
C627        C  0.12380367  0.41892874  0.42798618     0.19800
C628        C  0.12351236  0.42123127  0.44801528     0.01900
C629        C  0.14319704  0.41296930  0.45852006    -0.14200
C630        C  0.16292608  0.40372024  0.44947430    -0.11900
C631        C  0.16407277  0.40264073  0.42966680     0.01400
C632        C  0.14416249  0.41013253  0.41906999    -0.24100
H633        H  0.08449317  0.45144163  0.49904509     0.09400
H634        H  0.11792564  0.43273509  0.48610015     0.13000
H635        H  0.04892441  0.45372058  0.44367717     0.11700
H636        H  0.06875795  0.43988578  0.41625844     0.12900
H637        H  0.10385666  0.42370679  0.40163499     0.12000
H638        H  0.14368928  0.41313057  0.47375379     0.09000
H639        H  0.17725334  0.39719056  0.45811545     0.12300
H640        H  0.14489845  0.40979977  0.40376312     0.14200
C641        C  0.19019580  0.35214590  0.37548023    -0.01300
C642        C  0.15910902  0.32730833  0.37202501    -0.09400
C643        C  0.15103481  0.31139288  0.35470420    -0.18200
C644        C  0.17395889  0.31978109  0.34013483     0.04200
C645        C  0.20545242  0.34502420  0.34368925     0.18400
C646        C  0.21319104  0.36087627  0.36114481    -0.19600
C647        C  0.22908855  0.35442557  0.32978145    -0.20900
C648        C  0.22213151  0.33938630  0.31231836    -0.19400
C649        C  0.19136634  0.31452826  0.30831114     0.19800
C650        C  0.16682066  0.30421850  0.32216750     0.01900
C651        C  0.13623729  0.27885198  0.31737520    -0.14200
C652        C  0.13026081  0.26468204  0.29955412    -0.11900
C653        C  0.15441012  0.27517376  0.28585682     0.01400
C654        C  0.18499187  0.30005230  0.29043187    -0.24100
H655        H  0.14093629  0.31977679  0.38287544     0.09400
H656        H  0.12665299  0.29259695  0.35319716     0.13000
H657        H  0.23719331  0.38043737  0.36347182     0.11700
H658        H  0.25315202  0.37362691  0.33241239     0.12900
H659        H  0.24096747  0.34731928  0.30184419     0.12000
H660        H  0.11640074  0.26935162  0.32707424     0.09000
H661        H  0.10657648  0.24512259  0.29654808     0.12300
H662        H  0.20381384  0.30861267  0.27990887     0.14200
C663        C  0.08623199  0.81006678  0.22676325    -0.01300
C664        C  0.07178891  0.82323852  0.21549636    -0.09400
C665        C  0.04212840  0.80410945  0.20712136    -0.18200
C666        C  0.02507666  0.77084003  0.21007734     0.04200
C667        C  0.03870041  0.75755226  0.22229225     0.18400
C668        C  0.06923859  0.77696293  0.23009649    -0.19600
C669        C  0.02159087  0.72501904  0.22676540    -0.20900
C670        C  0.99111215  0.70550453  0.21948698    -0.19400
C671        C  0.97747045  0.71773049  0.20692912     0.19800
C672        C  0.99468992  0.75044195  0.20167024     0.01900
C673        C  0.98099157  0.76125677  0.18797344    -0.14200
C674        C  0.95111587  0.74074661  0.18025786    -0.11900
C675        C  0.93352167  0.70885077  0.18601724     0.01400
C676        C  0.94685913  0.69744519  0.19941458    -0.24100
H677        H  0.08307843  0.84868611  0.21329856     0.09400
H678        H  0.03273404  0.81627264  0.19886429     0.13000
H679        H  0.07972127  0.76605845  0.23869883     0.11700
H680        H  0.03163773  0.71468441  0.23621009     0.12900
H681        H  0.97832136  0.68056687  0.22348702     0.12000
H682        H  0.99303698  0.78532275  0.18263182     0.09000
H683        H  0.94152334  0.75013421  0.16984644     0.12300
H684        H  0.93368025  0.67265415  0.20372664     0.14200
C685        C  0.19261269  0.91212988  0.22550671    -0.01300
C686        C  0.21045953  0.93850900  0.23720571    -0.09400
C687        C  0.23088023  0.96852330  0.22962617    -0.18200
C688        C  0.23386269  0.97360651  0.20988216     0.04200
C689        C  0.21498594  0.94723896  0.19796539     0.18400
C690        C  0.19512997  0.91679867  0.20579706    -0.19600
C691        C  0.21569612  0.95156484  0.17833440    -0.20900
C692        C  0.23432952  0.98165900  0.17033216    -0.19400
C693        C  0.25357163  0.00798542  0.18170066     0.19800
C694        C  0.25427116  0.00410575  0.20160037     0.01900
C695        C  0.27554454  0.03089617  0.21236509    -0.14200
C696        C  0.29433713  0.06051277  0.20385340    -0.11900
C697        C  0.29253896  0.06467074  0.18437969     0.01400
C698        C  0.27221552  0.03820569  0.17332653    -0.24100
H699        H  0.20820022  0.93623344  0.25244097     0.09400
H700        H  0.24323967  0.98746386  0.23966205     0.13000
H701        H  0.18162699  0.89679598  0.19647307     0.11700
H702        H  0.20126621  0.93164613  0.16912900     0.12900
H703        H  0.23386009  0.98431313  0.15513013     0.12000
H704        H  0.27856370  0.02971397  0.22738354     0.09000
H705        H  0.31008287  0.08044159  0.21269489     0.12300
H706        H  0.27111657  0.04105315  0.15817816     0.14200
C707        C  0.27747097  0.82487274  0.42570321    -0.01300
C708        C  0.29300039  0.81221528  0.43636730    -0.09400
C709        C  0.32158643  0.83207013  0.44567874    -0.18200
C710        C  0.33596791  0.86557433  0.44451764     0.04200
C711        C  0.32065405  0.87837786  0.43329628     0.18400
C712        C  0.29158527  0.85809384  0.42425064    -0.19600
C713        C  0.33453539  0.91137538  0.43106678    -0.20900
C714        C  0.36358998  0.93200004  0.43953719    -0.19400
C715        C  0.37910157  0.92019281  0.45085667     0.19800
C716        C  0.36516750  0.88681749  0.45385672     0.01900
C717        C  0.38092645  0.87622136  0.46623162    -0.14200
C718        C  0.40954600  0.89778894  0.47491678    -0.11900
C719        C  0.42374726  0.93049737  0.47135151     0.01400
C720        C  0.40842908  0.94159238  0.45929716    -0.24100
H721        H  0.28325703  0.78671053  0.43732709     0.09400
H722        H  0.33211755  0.82041935  0.45337469     0.13000
H723        H  0.27982257  0.86828720  0.41616219     0.11700
H724        H  0.32303067  0.92130765  0.42250193     0.12900
H725        H  0.37389432  0.95740090  0.43732424     0.12000
H726        H  0.37157473  0.85146445  0.46969691     0.09000
H727        H  0.42095593  0.88873586  0.48425704     0.12300
H728        H  0.41908993  0.96696803  0.45675158     0.14200
C729        C  0.17396744  0.72142885  0.42397903    -0.01300
C730        C  0.18643939  0.70579888  0.43470400    -0.09400
C731        C  0.16648462  0.67683299  0.44358781    -0.18200
C732        C  0.13300563  0.66198628  0.44187644     0.04200
C733        C  0.12030519  0.67684249  0.43017606     0.18400
C734        C  0.14071035  0.70653010  0.42164012    -0.19600
C735        C  0.08735491  0.66187599  0.42703290    -0.20900
C736        C  0.06679307  0.63238874  0.43521783    -0.19400
C737        C  0.07853426  0.61773325  0.44733979     0.19800
C738        C  0.11177080  0.63273072  0.45117556     0.01900
C739        C  0.12228627  0.61817950  0.46450039    -0.14200
C740        C  0.10081317  0.58967024  0.47334339    -0.11900
C741        C  0.06829604  0.57436845  0.46902052     0.01400
C742        C  0.05724546  0.58839571  0.45591445    -0.24100
H743        H  0.21196547  0.71581860  0.43611382     0.09400
H744        H  0.17809630  0.66632607  0.45134574     0.13000
H745        H  0.13057546  0.71811579  0.41333807     0.11700
H746        H  0.07745310  0.67287266  0.41800407     0.12900
H747        H  0.04146903  0.62124641  0.43231823     0.12000
H748        H  0.14686130  0.62857840  0.46874636     0.09000
H749        H  0.10982099  0.57928668  0.48347926     0.12300
H750        H  0.03196875  0.57685575  0.45274969     0.14200
C751        C  0.20483964  0.79905564  0.36965605    -0.01300
C752        C  0.21189322  0.83035721  0.36605736    -0.09400
C753        C  0.20507123  0.83894481  0.34854994    -0.18200
C754        C  0.19072357  0.81631985  0.33392792     0.04200
C755        C  0.18388390  0.78465334  0.33757268     0.18400
C756        C  0.19099959  0.77638293  0.35524755    -0.19600
C757        C  0.16979777  0.76132956  0.32359209    -0.20900
C758        C  0.16190714  0.76861612  0.30609974    -0.19400
C759        C  0.16796424  0.79943363  0.30211049     0.19800
C760        C  0.18268889  0.82384229  0.31590481     0.01900
C761        C  0.18852407  0.85462577  0.31105768    -0.14200
C762        C  0.18000172  0.86079274  0.29335364    -0.11900
C763        C  0.16535869  0.83663678  0.27984575     0.01400
C764        C  0.15935512  0.80596827  0.28436253    -0.24100
H765        H  0.22227926  0.84828287  0.37698398     0.09400
H766        H  0.21108316  0.86343272  0.34699973     0.13000
H767        H  0.18592656  0.75221695  0.35774167     0.11700
H768        H  0.16463017  0.73718065  0.32625123     0.12900
H769        H  0.15084614  0.74994396  0.29562976     0.12000
H770        H  0.19958044  0.87448410  0.32062023     0.09000
H771        H  0.18461573  0.88463303  0.29027305     0.12300
H772        H  0.14836283  0.78723480  0.27391148     0.14200
C773        C  0.08219363  0.23124028  0.22933296    -0.01300
C774        C  0.06855726  0.25064494  0.23168859    -0.09400
C775        C  0.04017285  0.24364303  0.22261410    -0.18200
C776        C  0.02458008  0.21715593  0.21046157     0.04200
C777        C  0.03920032  0.19843014  0.20734252     0.18400
C778        C  0.06712963  0.20506138  0.21707527    -0.19600
C779        C  0.02587688  0.17315602  0.19450933    -0.20900
C780        C  0.99811074  0.16589134  0.18478686    -0.19400
C781        C  0.98234330  0.18295946  0.18818941     0.19800
C782        C  0.99508902  0.20858976  0.20126559     0.01900
C783        C  0.97724181  0.22384470  0.20498476    -0.14200
C784        C  0.94790998  0.21386144  0.19619279    -0.11900
C785        C  0.93578110  0.18895146  0.18312391     0.01400
C786        C  0.95337814  0.17393622  0.17896571    -0.24100
H787        H  0.08003362  0.27172098  0.24041813     0.09400
H788        H  0.03140445  0.25983414  0.22507985     0.13000
H789        H  0.07683738  0.18940591  0.21516964     0.11700
H790        H  0.03712154  0.15901525  0.19188229     0.12900
H791        H  0.98847837  0.14627271  0.17487736     0.12000
H792        H  0.98482343  0.24291341  0.21503965     0.09000
H793        H  0.93463535  0.22572299  0.19963719     0.12300
H794        H  0.94386921  0.15428814  0.16906229     0.14200
C795        C  0.76711974  0.91843128  0.22917116    -0.01300
C796        C  0.76869243  0.92036611  0.20936491    -0.09400
C797        C  0.77834885  0.94915319  0.20000612    -0.18200
C798        C  0.78655417  0.97725561  0.21016413     0.04200
C799        C  0.78353565  0.97499338  0.23019008     0.18400
C800        C  0.77423165  0.94591720  0.23946408    -0.19600
C801        C  0.79003250  0.00183014  0.24085940    -0.20900
C802        C  0.79951023  0.03093359  0.23206495    -0.19400
C803        C  0.80341764  0.03411651  0.21241174     0.19800
C804        C  0.79744019  0.00743469  0.20118417     0.01900
C805        C  0.80308777  0.01226753  0.18149513    -0.14200
C806        C  0.81356788  0.04212252  0.17329430    -0.11900
C807        C  0.81850589  0.06811823  0.18432106     0.01400
C808        C  0.81345887  0.06392687  0.20391613    -0.24100
H809        H  0.76231645  0.89940860  0.20095452     0.09400
H810        H  0.77880891  0.94850960  0.18478892     0.13000
H811        H  0.77327553  0.94496951  0.25477628     0.11700
H812        H  0.78761491  0.00027008  0.25612195     0.12900
H813        H  0.80414461  0.05119128  0.24072675     0.12000
H814        H  0.79999878  0.99356253  0.17204915     0.09000
H815        H  0.81747729  0.04474280  0.15815357     0.12300
H816        H  0.81767479  0.08400699  0.21263475     0.14200
C817        C  0.09527825  0.48209819  0.89414500    -0.01300
C818        C  0.10656168  0.46667803  0.90597159    -0.09400
C819        C  0.11711096  0.44698508  0.89847572    -0.18200
C820        C  0.11674454  0.44206319  0.87874974     0.04200
C821        C  0.10559572  0.45806403  0.86679514     0.18400
C822        C  0.09487996  0.47764842  0.87455163    -0.19600
C823        C  0.10528552  0.45453373  0.84715360    -0.20900
C824        C  0.11607094  0.43557726  0.83905296    -0.19400
C825        C  0.12699220  0.41933143  0.85041464     0.19800
C826        C  0.12716675  0.42202075  0.87044690     0.01900
C827        C  0.13752962  0.40431648  0.88127375    -0.14200
C828        C  0.14743418  0.38497425  0.87256330    -0.11900
C829        C  0.14776884  0.38291911  0.85284567     0.01400
C830        C  0.13760225  0.40022595  0.84183777    -0.24100
H831        H  0.10773463  0.47024909  0.92112525     0.09400
H832        H  0.12572102  0.43628292  0.90850432     0.13000
H833        H  0.08597230  0.48932347  0.86529764     0.11700
H834        H  0.09683249  0.46669547  0.83797551     0.12900
H835        H  0.11572029  0.43348692  0.82378817     0.12000
H836        H  0.13803200  0.40463683  0.89649590     0.09000
H837        H  0.15527141  0.37183555  0.88134206     0.12300
H838        H  0.13749844  0.39845406  0.82655108     0.14200
C839        C  0.91524005  0.49285545  0.09106087    -0.01300
C840        C  0.88637661  0.47919391  0.10111814    -0.09400
C841        C  0.87655802  0.49809174  0.11045896    -0.18200
C842        C  0.89523575  0.53164803  0.10995998     0.04200
C843        C  0.92392922  0.54554448  0.09918430     0.18400
C844        C  0.93378966  0.52617467  0.09004503    -0.19600
C845        C  0.94256961  0.57869457  0.09756918    -0.20900
C846        C  0.93321272  0.59837530  0.10631603    -0.19400
C847        C  0.90541898  0.58543605  0.11730745     0.19800
C848        C  0.88631607  0.55188507  0.11959708     0.01900
C849        C  0.85939436  0.54011839  0.13166122    -0.14200
C850        C  0.85157456  0.56078770  0.14079165    -0.11900
C851        C  0.86984819  0.59369957  0.13794545     0.01400
C852        C  0.89671687  0.60589174  0.12616088    -0.24100
H853        H  0.87096476  0.45358698  0.10162414     0.09400
H854        H  0.85394797  0.48566605  0.11769155     0.13000
H855        H  0.95614104  0.53711023  0.08230787     0.11700
H856        H  0.96440203  0.58948526  0.08932958     0.12900
H857        H  0.94800989  0.62393676  0.10462701     0.12000
H858        H  0.84415459  0.51511170  0.13457188     0.09000
H859        H  0.83075127  0.55091842  0.14988771     0.12300
H860        H  0.91122072  0.63143648  0.12415780     0.14200
C861        C  0.91524206  0.38963591  0.08956715    -0.01300
C862        C  0.88844670  0.37525042  0.10152759    -0.09400
C863        C  0.87924935  0.34621638  0.11041349    -0.18200
C864        C  0.89606023  0.32981483  0.10729445     0.04200
C865        C  0.92194329  0.34327406  0.09429351     0.18400
C866        C  0.93173744  0.37317453  0.08596015    -0.19600
C867        C  0.93782397  0.32673311  0.08964274    -0.20900
C868        C  0.92857162  0.29711878  0.09768343    -0.19400
C869        C  0.90406286  0.28389016  0.11114952     0.19800
C870        C  0.88784804  0.30035705  0.11642014     0.01900
C871        C  0.86464727  0.28699760  0.13091791    -0.14200
C872        C  0.85758538  0.25832022  0.13959788    -0.11900
C873        C  0.87294812  0.24169780  0.13398911     0.01400
C874        C  0.89602745  0.25452308  0.11963396    -0.24100
H875        H  0.87401518  0.38620456  0.10394666     0.09400
H876        H  0.85833448  0.33682986  0.11926643     0.13000
H877        H  0.95248447  0.38363156  0.07681352     0.11700
H878        H  0.95733796  0.33661905  0.07956320     0.12900
H879        H  0.94113274  0.28478229  0.09363235     0.12000
H880        H  0.85206653  0.29848755  0.13618582     0.09000
H881        H  0.83970337  0.24894652  0.15067925     0.12300
H882        H  0.90831519  0.24200331  0.11536942     0.14200
C883        C  0.96363716  0.46782670  0.03542039    -0.01300
C884        C  0.98745856  0.49931629  0.03175766    -0.09400
C885        C  0.00277121  0.50809434  0.01423833    -0.18200
C886        C  0.99490460  0.48548391  0.99966204     0.04200
C887        C  0.97105733  0.45346779  0.00349002     0.18400
C888        C  0.95558854  0.44503548  0.02113801    -0.19600
C889        C  0.96279660  0.43000577  0.98969117    -0.20900
C890        C  0.97776032  0.43762112  0.97212406    -0.19400
C891        C  0.00114752  0.46895247  0.96783807     0.19800
C892        C  0.00992979  0.49340374  0.98149991     0.01900
C893        C  0.03336016  0.52470950  0.97636109    -0.14200
C894        C  0.04775789  0.53132447  0.95858963    -0.11900
C895        C  0.03932087  0.50716112  0.94521124     0.01400
C896        C  0.01585736  0.47597971  0.94994778    -0.24100
H897        H  0.99466981  0.51730844  0.04261524     0.09400
H898        H  0.02088408  0.53274020  0.01266007     0.13000
H899        H  0.93693954  0.42066372  0.02364862     0.11700
H900        H  0.94471308  0.40552915  0.99253696     0.12900
H901        H  0.97092703  0.41885841  0.96179258     0.12000
H902        H  0.04124326  0.54468535  0.98575743     0.09000
H903        H  0.06616208  0.55553449  0.95545511     0.12300
H904        H  0.00885020  0.45714717  0.93963855     0.14200
C905        C  0.51863663  0.89846298  0.89698559    -0.01300
C906        C  0.53903503  0.89286850  0.90839872    -0.09400
C907        C  0.55994811  0.88414419  0.90046113    -0.18200
C908        C  0.56098369  0.88037154  0.88069821     0.04200
C909        C  0.53963214  0.88516550  0.86921547     0.18400
C910        C  0.51916492  0.89453156  0.87735470    -0.19600
C911        C  0.53871230  0.88047439  0.84965831    -0.20900
C912        C  0.55847299  0.87091940  0.84121936    -0.19400
C913        C  0.58019662  0.86657575  0.85206207     0.19800
C914        C  0.58215236  0.87171696  0.87192544     0.01900
C915        C  0.60545000  0.86829728  0.88207451    -0.14200
C916        C  0.62545859  0.85955392  0.87293440    -0.11900
C917        C  0.62282104  0.85363852  0.85345294     0.01400
C918        C  0.60012730  0.85726117  0.84310478    -0.24100
H919        H  0.53858729  0.89480323  0.92363076     0.09400
H920        H  0.57459990  0.88000712  0.91021797     0.13000
H921        H  0.50378641  0.89904993  0.86829000     0.11700
H922        H  0.52236642  0.88393014  0.84083698     0.12900
H923        H  0.55695212  0.86718099  0.82606500     0.12000
H924        H  0.60906420  0.87252670  0.89705336     0.09000
H925        H  0.64287391  0.85704966  0.88125868     0.12300
H926        H  0.59814042  0.85311022  0.82798109     0.14200
C927        C  0.40584263  0.12860821  0.13581514    -0.01300
C928        C  0.42587278  0.12178670  0.14669766    -0.09400
C929        C  0.44655444  0.11335370  0.13810870    -0.18200
C930        C  0.44825071  0.11195709  0.11818659     0.04200
C931        C  0.42816176  0.11934366  0.10720562     0.18400
C932        C  0.40689939  0.12702402  0.11606132    -0.19600
C933        C  0.42977109  0.11954475  0.08744139    -0.20900
C934        C  0.45125278  0.11298695  0.07829770    -0.19400
C935        C  0.47111816  0.10528939  0.08867201     0.19800
C936        C  0.46951413  0.10408529  0.10875868     0.01900
C937        C  0.48917627  0.09492726  0.11849872    -0.14200
C938        C  0.50992519  0.08789423  0.10873148    -0.11900
C939        C  0.51221109  0.09003785  0.08894345     0.01400
C940        C  0.49257124  0.09872997  0.07903206    -0.24100
H941        H  0.42546541  0.12282372  0.16198859     0.09400
H942        H  0.46130550  0.10865734  0.14746060     0.13000
H943        H  0.39171233  0.13260432  0.10751949     0.11700
H944        H  0.41461206  0.12526215  0.07898677     0.12900
H945        H  0.45219929  0.11376270  0.06297993     0.12000
H946        H  0.48874920  0.09246973  0.13365788     0.09000
H947        H  0.52398291  0.08029408  0.11679143     0.12300
H948        H  0.49414672  0.10074264  0.06375376     0.14200
C949        C  0.61585258  0.08974324  0.08746059    -0.01300
C950        C  0.64298561  0.09711944  0.07663084    -0.09400
C951        C  0.67145346  0.10327761  0.08523255    -0.18200
C952        C  0.67401989  0.10278840  0.10513723     0.04200
C953        C  0.64687791  0.09639302  0.11612292     0.18400
C954        C  0.61810877  0.08934098  0.10727152    -0.19600
C955        C  0.64866261  0.09732876  0.13589665    -0.20900
C956        C  0.67705004  0.10493242  0.14502196    -0.19400
C957        C  0.70406169  0.11077243  0.13461952     0.19800
C958        C  0.70268369  0.10900595  0.11453311     0.01900
C959        C  0.72999929  0.11331843  0.10472917    -0.14200
C960        C  0.75783144  0.12030592  0.11438520    -0.05600
C961        C  0.75963564  0.12352148  0.13409579     0.01400
C962        C  0.73251473  0.11843948  0.14416779    -0.24100
H963        H  0.64247310  0.09861773  0.06136990     0.09400
H964        H  0.69123832  0.10909621  0.07589790     0.13000
H965        H  0.59736036  0.08329602  0.11593081     0.11700
H966        H  0.62808936  0.09264737  0.14436529     0.12900
H967        H  0.67780503  0.10600874  0.16033234     0.12000
H968        H  0.73058591  0.11121532  0.08959204     0.09000
H969        H  0.77834939  0.12391527  0.10624800     0.12300
H970        H  0.73352998  0.12044767  0.15945072     0.14200
C971        C  0.49509373  0.95783972  0.94659755    -0.01300
C972        C  0.52605259  0.98378517  0.94848484    -0.09400
C973        C  0.53550802  0.00173997  0.96507389    -0.18200
C974        C  0.51415577  0.99416244  0.98045972     0.04200
C975        C  0.48259820  0.96815157  0.97831037     0.18400
C976        C  0.47341830  0.95042531  0.96153216    -0.19600
C977        C  0.46043002  0.95961245  0.99301946    -0.20900
C978        C  0.46897825  0.97615589  0.00998087    -0.19400
C979        C  0.49991755  0.00163683  0.01266948     0.19800
C980        C  0.52298528  0.01114837  0.99795197     0.01900
C981        C  0.55393087  0.03698687  0.00150608    -0.14200
C982        C  0.56161127  0.05241292  0.01896727    -0.11900
C983        C  0.53883515  0.04281091  0.03344230     0.01400
C984        C  0.50796381  0.01747246  0.03012239    -0.24100
H985        H  0.54309975  0.99032143  0.93703637     0.09400
H986        H  0.55968519  0.02122843  0.96542757     0.13000
H987        H  0.44950385  0.93017743  0.96030697     0.11700
H988        H  0.43633016  0.93984138  0.99144235     0.12900
H989        H  0.45128938  0.96882030  0.02113170     0.12000
H990        H  0.57275974  0.04578958  0.99115313     0.09000
H991        H  0.58552578  0.07220101  0.02110645     0.12300
H992        H  0.49027820  0.00960512  0.04130822     0.14200
C993        C  0.09192793  0.79573723  0.80282430    -0.01300
C994        C  0.07326433  0.80850544  0.80911523    -0.09400
C995        C  0.04352268  0.79900057  0.80115273    -0.18200
C996        C  0.03118354  0.77594582  0.78666249     0.04200
C997        C  0.04952307  0.76192988  0.78090656     0.18400
C998        C  0.07990036  0.77236411  0.78871516    -0.19600
C999        C  0.03725574  0.73741433  0.76754388    -0.20900
C1000       C  0.00704691  0.72640977  0.75985926    -0.19400
C1001       C  0.98890558  0.74052434  0.76476586     0.19800
C1002       C  0.00112261  0.76603576  0.77788033     0.01900
C1003       C  0.98313796  0.78113595  0.78127562    -0.14200
C1004       C  0.95399776  0.77095196  0.77233700    -0.11900
C1005       C  0.94096378  0.74468736  0.76008784     0.01400
C1006       C  0.95878846  0.72957530  0.75643753    -0.24100
H1007       H  0.08185078  0.82627973  0.82017221     0.09400
H1008       H  0.03050913  0.80969970  0.80692405     0.13000
H1009       H  0.09390990  0.76182620  0.78408482     0.11700
H1010       H  0.05094120  0.72639166  0.76318844     0.12900
H1011       H  0.99806617  0.70712200  0.74973619     0.12000
H1012       H  0.99146185  0.80167381  0.79025639     0.09000
H1013       H  0.94204396  0.78440650  0.77484942     0.12300
H1014       H  0.94938450  0.70921360  0.74711550     0.14200
C1015       C  0.21188032  0.91552704  0.80444312    -0.01300
C1016       C  0.19751959  0.93289682  0.81041246    -0.09400
C1017       C  0.20631804  0.96255971  0.80256835    -0.18200
C1018       C  0.23019517  0.97617693  0.78847276     0.04200
C1019       C  0.24592618  0.95927016  0.78310407     0.18400
C1020       C  0.23630253  0.92895563  0.79085171    -0.19600
C1021       C  0.27107765  0.97276030  0.77003863    -0.20900
C1022       C  0.28067611  0.00251955  0.76203175    -0.19400
C1023       C  0.26473581  0.01912043  0.76644236     0.19800
C1024       C  0.23900857  0.00595179  0.77956504     0.01900
C1025       C  0.22256494  0.02269667  0.78280553    -0.14200
C1026       C  0.23139098  0.05133676  0.77356943    -0.11900
C1027       C  0.25738685  0.06497728  0.76102948     0.01400
C1028       C  0.27401924  0.04858787  0.75759518    -0.24100
H1029       H  0.17885371  0.92322407  0.82103126     0.09400
H1030       H  0.19414149  0.97435963  0.80801835     0.13000
H1031       H  0.24802629  0.91595172  0.78644421     0.11700
H1032       H  0.28347933  0.96024717  0.76602014     0.12900
H1033       H  0.30028476  0.01231826  0.75201853     0.12000
H1034       H  0.20204346  0.01381875  0.79196731     0.09000
H1035       H  0.21712535  0.06246570  0.77603714     0.12300
H1036       H  0.29423790  0.05866780  0.74802751     0.14200
C1037       C  0.14721710  0.73748240  0.85118194    -0.01300
C1038       C  0.14029376  0.73323370  0.87055616    -0.09400
C1039       C  0.13014213  0.70385498  0.87923949    -0.18200
C1040       C  0.12630450  0.67741583  0.86873761     0.04200
C1041       C  0.13277900  0.68163073  0.84899888     0.18400
C1042       C  0.14345410  0.71154046  0.84047538    -0.19600
C1043       C  0.12835662  0.65591929  0.83787364    -0.20900
C1044       C  0.11730344  0.62596383  0.84590247    -0.19400
C1045       C  0.11102239  0.62112261  0.86532588     0.19800
C1046       C  0.11595058  0.64690612  0.87707290     0.01900
C1047       C  0.11060163  0.64110471  0.89669096    -0.14200
C1048       C  0.10034050  0.61094792  0.90425914    -0.11900
C1049       C  0.09440775  0.58519636  0.89262270     0.01400
C1050       C  0.09991648  0.59061652  0.87308945    -0.24100
H1051       H  0.14297591  0.75285322  0.87916617     0.09400
H1052       H  0.12515561  0.70260553  0.89415230     0.13000
H1053       H  0.14847564  0.71450659  0.82543098     0.11700
H1054       H  0.13318272  0.65892055  0.82281431     0.12900
H1055       H  0.11383788  0.60648570  0.83686781     0.12000
H1056       H  0.11471858  0.65947631  0.90667313     0.09000
H1057       H  0.09760577  0.60806808  0.91945131     0.12300
H1058       H  0.09533477  0.57105663  0.86381170     0.14200
C1059       C  0.41333899  0.89529160  0.89716752    -0.01300
C1060       C  0.38685393  0.88799618  0.90858631    -0.09400
C1061       C  0.35728572  0.87936666  0.90057332    -0.18200
C1062       C  0.35316075  0.87757487  0.88073261     0.04200
C1063       C  0.37965840  0.88342069  0.86924910     0.18400
C1064       C  0.40936916  0.89256138  0.87748150    -0.19600
C1065       C  0.37642935  0.88028365  0.84958958    -0.20900
C1066       C  0.34735270  0.87146978  0.84103464    -0.19400
C1067       C  0.32108270  0.86653502  0.85188244     0.19800
C1068       C  0.32372382  0.87004945  0.87186780     0.01900
C1069       C  0.29698305  0.86650296  0.88204055    -0.14200
C1070       C  0.26863264  0.85899698  0.87279017    -0.11900
C1071       C  0.26582754  0.85445646  0.85318005     0.01400
C1072       C  0.29220848  0.85835320  0.84281127    -0.24100
H1073       H  0.38893777  0.88886696  0.92384871     0.09400
H1074       H  0.33805234  0.87389846  0.91029363     0.13000
H1075       H  0.42963215  0.89820118  0.86845086     0.11700
H1076       H  0.39648957  0.88447519  0.84077015     0.12900
H1077       H  0.34553578  0.86896434  0.82579026     0.12000
H1078       H  0.29734092  0.86981310  0.89711707     0.09000
H1079       H  0.24863464  0.85629895  0.88111675     0.12300
H1080       H  0.29039233  0.85532621  0.82759066     0.14200
C1081       C  0.26991669  0.40667592  0.42739028    -0.01300
C1082       C  0.29639276  0.41579472  0.41557446    -0.09400
C1083       C  0.32664288  0.42610892  0.42308492    -0.18200
C1084       C  0.33168000  0.42811297  0.44284443     0.04200
C1085       C  0.30493248  0.41932464  0.45481946     0.18400
C1086       C  0.27447454  0.40838925  0.44706298    -0.19600
C1087       C  0.30875387  0.42170939  0.47447819    -0.20900
C1088       C  0.33868814  0.43293682  0.48253291    -0.19400
C1089       C  0.36545569  0.44150296  0.47114964     0.19800
C1090       C  0.36229723  0.43882303  0.45114096     0.01900
C1091       C  0.38990229  0.44677700  0.44033611    -0.14200
C1092       C  0.41931766  0.45709749  0.44902392    -0.11900
C1093       C  0.42240987  0.46022888  0.46869490     0.01400
C1094       C  0.39538109  0.45251688  0.47968364    -0.24100
H1095       H  0.29393595  0.41556087  0.40034979     0.09400
H1096       H  0.34565903  0.43289300  0.41300146     0.13000
H1097       H  0.25424286  0.40106078  0.45643207     0.11700
H1098       H  0.28848227  0.41512755  0.48369478     0.12900
H1099       H  0.34088123  0.43475317  0.49779281     0.12000
H1100       H  0.38956092  0.44494928  0.42515854     0.09000
H1101       H  0.43986216  0.46288809  0.44023060     0.12300
H1102       H  0.39750801  0.45450583  0.49494871     0.14200
C1103       C  0.47760669  0.40085874  0.51670380    -0.01300
C1104       C  0.49162308  0.38299834  0.51107234    -0.09400
C1105       C  0.48279101  0.35368533  0.51951128    -0.18200
C1106       C  0.45911846  0.34095007  0.53377494     0.04200
C1107       C  0.44390790  0.35847542  0.53885276     0.18400
C1108       C  0.45368780  0.38842772  0.53060604    -0.19600
C1109       C  0.41886857  0.34584489  0.55199506    -0.20900
C1110       C  0.40831790  0.31594247  0.56001114    -0.19400
C1111       C  0.42336576  0.29847575  0.55565220     0.19800
C1112       C  0.44959791  0.31119284  0.54290337     0.01900
C1113       C  0.46553435  0.29384478  0.54008779    -0.14200
C1114       C  0.45516093  0.26460127  0.54900312    -0.11900
C1115       C  0.42805530  0.25099918  0.56071537     0.01400
C1116       C  0.41241706  0.26839785  0.56403226    -0.24100
H1117       H  0.50999242  0.39200127  0.50027290     0.09400
H1118       H  0.49452550  0.34130177  0.51430766     0.13000
H1119       H  0.44231537  0.40186843  0.53479968     0.11700
H1120       H  0.40700997  0.35895330  0.55586753     0.12900
H1121       H  0.38851097  0.30659573  0.56988052     0.12000
H1122       H  0.48666042  0.30263971  0.53146209     0.09000
H1123       H  0.46889621  0.25283877  0.54681174     0.12300
H1124       H  0.39144096  0.25853643  0.57298414     0.14200
C1125       C  0.74355500  0.56137407  0.56386141    -0.01300
C1126       C  0.72885110  0.53347535  0.55302205    -0.09400
C1127       C  0.70029520  0.52426840  0.54358639    -0.18200
C1128       C  0.68499356  0.54249757  0.54486530     0.04200
C1129       C  0.69911836  0.56998898  0.55653641     0.18400
C1130       C  0.72829552  0.57937193  0.56567983    -0.19600
C1131       C  0.68394498  0.58785290  0.55907750    -0.20900
C1132       C  0.65474056  0.57868621  0.55052222    -0.19400
C1133       C  0.64051056  0.55204233  0.53871372     0.19800
C1134       C  0.65588116  0.53407323  0.53528212     0.01900
C1135       C  0.64160743  0.50867780  0.52224280    -0.14200
C1136       C  0.61278881  0.50086600  0.51349702    -0.11900
C1137       C  0.59702389  0.51767308  0.51765115     0.01400
C1138       C  0.61102056  0.54330590  0.53022425    -0.24100
H1139       H  0.73936209  0.51838753  0.55190494     0.09400
H1140       H  0.69048425  0.50238689  0.53572745     0.13000
H1141       H  0.73929044  0.60095179  0.57403015     0.11700
H1142       H  0.69449403  0.60878711  0.56798699     0.12900
H1143       H  0.64333268  0.59270415  0.55303156     0.12000
H1144       H  0.65232056  0.49468591  0.51828589     0.09000
H1145       H  0.60245544  0.48113266  0.50367910     0.12300
H1146       H  0.59916263  0.55678877  0.53316161     0.14200
C1147       C  0.54399674  0.57952800  0.47033986    -0.01300
C1148       C  0.55357079  0.60588867  0.48214163    -0.09400
C1149       C  0.56478460  0.63632518  0.47455760    -0.18200
C1150       C  0.56621973  0.64132450  0.45476528     0.04200
C1151       C  0.55601928  0.61435880  0.44286441     0.18400
C1152       C  0.54558927  0.58401501  0.45069635    -0.19600
C1153       C  0.55577249  0.61771625  0.42321121    -0.20900
C1154       C  0.56504364  0.64723319  0.41507636    -0.19400
C1155       C  0.57540329  0.67428927  0.42635612     0.19800
C1156       C  0.57670270  0.67188901  0.44634840     0.01900
C1157       C  0.58829861  0.70018024  0.45699396    -0.14200
C1158       C  0.59716833  0.72931520  0.44820551    -0.11900
C1159       C  0.59484817  0.73141416  0.42854307     0.01400
C1160       C  0.58421611  0.70372448  0.41771813    -0.24100
H1161       H  0.55259518  0.60300357  0.49736896     0.09400
H1162       H  0.57160407  0.65533557  0.48456992     0.13000
H1163       H  0.53786273  0.56365952  0.44146328     0.11700
H1164       H  0.54790983  0.59725959  0.41406203     0.12900
H1165       H  0.56412155  0.64890981  0.39982419     0.12000
H1166       H  0.59095112  0.70063628  0.47213579     0.09000
H1167       H  0.60606803  0.75041235  0.45688730     0.12300
H1168       H  0.58210045  0.70488892  0.40251342     0.14200
C1169       C  0.41417360  0.48824482  0.89724870    -0.01300
C1170       C  0.39970917  0.50177474  0.88634049    -0.09400
C1171       C  0.37139599  0.48268445  0.87659932    -0.18200
C1172       C  0.35610454  0.44914119  0.87769683     0.04200
C1173       C  0.36995219  0.43548235  0.88947064     0.18400
C1174       C  0.39891883  0.45495778  0.89878364    -0.19600
C1175       C  0.35471222  0.40244723  0.89198345    -0.20900
C1176       C  0.32564107  0.38266230  0.88331187    -0.19400
C1177       C  0.31170597  0.39534514  0.87136692     0.19800
C1178       C  0.32720851  0.42868327  0.86790060     0.01900
C1179       C  0.31322370  0.43999973  0.85466490    -0.14200
C1180       C  0.28432958  0.41918836  0.84592921    -0.11900
C1181       C  0.26830326  0.38666696  0.85029932     0.01400
C1182       C  0.28226541  0.37484253  0.86287285    -0.24100
H1183       H  0.41015557  0.52736464  0.88540249     0.09400
H1184       H  0.36168128  0.49490351  0.86868248     0.13000
H1185       H  0.40975234  0.44403076  0.90706848     0.11700
H1186       H  0.36505933  0.39187194  0.90100274     0.12900
H1187       H  0.31409625  0.35722797  0.88584887     0.12000
H1188       H  0.32418345  0.46472231  0.85063216     0.09000
H1189       H  0.27406565  0.42872399  0.83607040     0.12300
H1190       H  0.27024741  0.34953177  0.86596099     0.14200
C1191       C  0.62378045  0.73532682  0.85204196    -0.01300
C1192       C  0.60481389  0.70878016  0.84079799    -0.09400
C1193       C  0.58538038  0.67892560  0.84898963    -0.18200
C1194       C  0.58389624  0.67478801  0.86885657     0.04200
C1195       C  0.60273891  0.70199859  0.88020727     0.18400
C1196       C  0.62283981  0.73170140  0.87174208    -0.19600
C1197       C  0.60094966  0.69955686  0.89994835    -0.20900
C1198       C  0.58033101  0.67073188  0.90870783    -0.19400
C1199       C  0.56168105  0.64343219  0.89795284     0.19800
C1200       C  0.56379975  0.64486623  0.87788263     0.01900
C1201       C  0.54569852  0.61627701  0.86774604    -0.14200
C1202       C  0.52530637  0.58784498  0.87709689    -0.11900
C1203       C  0.52191626  0.58682429  0.89683150     0.01400
C1204       C  0.54065794  0.61473196  0.90717268    -0.24100
H1205       H  0.60510651  0.71105687  0.82554321     0.09400
H1206       H  0.57128957  0.65974069  0.83940366     0.13000
H1207       H  0.63712190  0.75226929  0.88055449     0.11700
H1208       H  0.61515463  0.72023559  0.90868036     0.12900
H1209       H  0.57902511  0.66977121  0.92401727     0.12000
H1210       H  0.54696806  0.61500872  0.85258899     0.09000
H1211       H  0.51208608  0.56648326  0.86875146     0.12300
H1212       H  0.53833666  0.61438653  0.92242921     0.14200
C1213       C  0.60181652  0.50182273  0.09733083    -0.01300
C1214       C  0.60317015  0.50665309  0.11694221    -0.09400
C1215       C  0.63219531  0.52627514  0.12600514    -0.18200
C1216       C  0.66114151  0.54186503  0.11570493     0.04200
C1217       C  0.65953784  0.53761888  0.09575489     0.18400
C1218       C  0.63018244  0.51776916  0.08683664    -0.19600
C1219       C  0.68731791  0.55292890  0.08479227    -0.20900
C1220       C  0.71676727  0.57233087  0.09318134    -0.19400
C1221       C  0.71931292  0.57660257  0.11279522     0.19800
C1222       C  0.69160720  0.56130832  0.12440986     0.01900
C1223       C  0.69580428  0.56572839  0.14421208    -0.14200
C1224       C  0.72619237  0.58426864  0.15207004    -0.11900
C1225       C  0.75330729  0.59953794  0.14051250     0.01400
C1226       C  0.74958105  0.59579379  0.12086423    -0.24100
H1227       H  0.58157583  0.49520012  0.12537139     0.09400
H1228       H  0.63117920  0.52876731  0.14108537     0.13000
H1229       H  0.62958630  0.51409798  0.07169566     0.11700
H1230       H  0.68627637  0.54985623  0.06958511     0.12900
H1231       H  0.73779561  0.58381383  0.08425907     0.12000
H1232       H  0.67614082  0.55479871  0.15402518     0.09000
H1233       H  0.72845671  0.58689139  0.16728856     0.12300
H1234       H  0.77047179  0.60725121  0.11181425     0.14200
C1235       C  0.39956128  0.24548022  0.13975453    -0.01300
C1236       C  0.41838957  0.27140436  0.15149793    -0.09400
C1237       C  0.43708788  0.30198232  0.14394660    -0.18200
C1238       C  0.43797674  0.30752322  0.12422900     0.04200
C1239       C  0.41893264  0.28103077  0.11240301     0.18400
C1240       C  0.39966028  0.25060530  0.12023989    -0.19600
C1241       C  0.41971157  0.28487277  0.09275890    -0.20900
C1242       C  0.43965141  0.31434979  0.08450736    -0.19400
C1243       C  0.45874319  0.34091639  0.09571081     0.19800
C1244       C  0.45762138  0.33812342  0.11574865     0.01900
C1245       C  0.47631873  0.36606402  0.12635356    -0.14200
C1246       C  0.49598304  0.39524011  0.11741947    -0.11900
C1247       C  0.49818904  0.39769090  0.09761547     0.01400
C1248       C  0.47917499  0.37023479  0.08691177    -0.24100
H1249       H  0.41863576  0.26805744  0.16663857     0.09400
H1250       H  0.45109223  0.32063464  0.15386528     0.13000
H1251       H  0.38538116  0.23063419  0.11101829     0.11700
H1252       H  0.40525338  0.26477769  0.08367270     0.12900
H1253       H  0.44014662  0.31637380  0.06922549     0.12000
H1254       H  0.47602274  0.36623836  0.14158934     0.09000
H1255       H  0.50939091  0.41604121  0.12617008     0.12300
H1256       H  0.48066059  0.37135206  0.07161772     0.14200
C1257       C  0.52631479  0.47235751  0.04214772    -0.01300
C1258       C  0.51350309  0.44870575  0.02822336    -0.09400
C1259       C  0.50579362  0.45511195  0.01030275    -0.18200
C1260       C  0.51053238  0.48559725  0.00567793     0.04200
C1261       C  0.52338898  0.50945758  0.01989360     0.18400
C1262       C  0.53123642  0.50271942  0.03781479    -0.19600
C1263       C  0.52825991  0.53993841  0.01619005    -0.20900
C1264       C  0.52087634  0.54742172  0.99861124    -0.19400
C1265       C  0.50849013  0.52464597  0.98424753     0.19800
C1266       C  0.50299885  0.49332821  0.98753898     0.01900
C1267       C  0.49024091  0.47123959  0.97251056    -0.14200
C1268       C  0.48324645  0.47992886  0.95505339    -0.11900
C1269       C  0.48895013  0.51087293  0.95189457     0.01400
C1270       C  0.50159313  0.53309772  0.96656983    -0.24100
H1271       H  0.50974326  0.42512446  0.03114374     0.09400
H1272       H  0.49616964  0.43568639  0.00039879     0.13000
H1273       H  0.54074253  0.52106628  0.04855553     0.11700
H1274       H  0.53790982  0.55818206  0.02697972     0.12900
H1275       H  0.52499187  0.57127872  0.99621368     0.12000
H1276       H  0.48544002  0.44708627  0.97376929     0.09000
H1277       H  0.47371923  0.46245401  0.94383931     0.12300
H1278       H  0.50576154  0.55700941  0.96425842     0.14200
loop_ 
_geom_bond_atom_site_label_1 
_geom_bond_atom_site_label_2 
_geom_bond_distance 
_geom_bond_site_symmetry_2 
_ccdc_geom_bond_type 
C1            C2   1.408       .  A
C1            C6   1.407       .  A
C1         C1213   1.493       .  S
C2            C3   1.407       .  A
C2            H7   1.083       .  S
C3            C4   1.405       .  A
C3         C1257   1.489       .  S
C4            C5   1.408       .  A
C4            H8   1.082       .  S
C5            C6   1.408       .  A
C5         C1247   1.496       .  S
C6            H9   1.082       .  S
C10          C11   1.405       .  A
C10          C15   1.407       .  A
C10        C1169   1.491       .  S
C11          C12   1.405       .  A
C11          H16   1.082       .  S
C12          C13   1.406       .  A
C12        C1203   1.489       .  S
C13          C14   1.405       .  A
C13          H17   1.083       .  S
C14          C15   1.405       .  A
C14        C1269   1.484       .  S
C15          H18   1.083       .  S
O19         Cu27   2.010       .  S
O19          C29   1.279       .  A
O20         Cu27   2.014       .  S
O20          C30   1.279       .  A
O21         Cu27   2.001       .  S
O21          C31   1.277       .  A
O22         Cu27   2.001       .  S
O22          C32   1.277       .  A
O23         Cu28   2.013       .  S
O23          C32   1.279       .  A
O24         Cu28   2.011       .  S
O24          C31   1.278       .  A
O25         Cu28   2.012       .  S
O25          C30   1.279       .  A
O26         Cu28   2.014       .  S
O26          C29   1.278       .  A
Cu27        Cu28   2.373       .  S
C29        C1103   1.479       .  S
C30        C1147   1.480       .  S
C31        C1137   1.473       .  S
C32        C1093   1.477       .  S
O33         Cu41   2.023       .  S
O33          C43   1.279       .  A
O34         Cu41   2.016       .  S
O34          C44   1.279       .  A
O35         Cu41   2.017       .  S
O35          C45   1.279       .  A
O36         Cu41   2.009       .  S
O36          C46   1.279       .  A
O37         Cu42   1.998       .  S
O37          C46   1.277       .  A
O38         Cu42   1.998       .  S
O38          C45   1.277       .  A
O39         Cu42   2.000       .  S
O39          C44   1.278       .  A
O40         Cu42   2.002       .  S
O40          C43   1.278       .  A
Cu41        Cu42   2.372       .  S
C43        C1015   1.480       .  S
C44        C1037   1.480       .  S
C45         C993   1.477       .  S
C46        C1071   1.477       .  S
C47          C48   1.406       .  A
C47          C52   1.406       .  A
C47         C939   1.491       .  S
C48          C49   1.406       .  A
C48          H53   1.082       .  S
C49          C50   1.406       .  A
C49         C949   1.493       .  S
C50          C51   1.404       .  A
C50          H54   1.083       .  S
C51          C52   1.405       .  A
C51         C983   1.486       .  S
C52          H55   1.082       .  S
C56          C57   1.405       .  A
C56          C61   1.407       .  A
C56         C905   1.489       .  S
C57          C58   1.405       .  A
C57          H62   1.083       .  S
C58          C59   1.405       .  A
C58        C1059   1.487       .  S
C59          C60   1.404       .  A
C59          H63   1.083       .  S
C60          C61   1.405       .  A
C60         C971   1.486       .  S
C61          H64   1.082       .  S
C65          C66   1.403       .  A
C65          C70   1.404       .  A
C65         C839   1.490       .  S
C66          C67   1.406       .  A
C66          H71   1.082       .  S
C67          C68   1.408       .  A
C67         C861   1.497       .  S
C68          C69   1.408       .  A
C68          H72   1.081       .  S
C69          C70   1.407       .  A
C69         C883   1.490       .  S
C70          H73   1.083       .  S
C74          C75   1.405       .  A
C74          C79   1.405       .  A
C74         C817   1.483       .  S
C75          C76   1.403       .  A
C75          H80   1.083       .  S
C76          C77   1.404       .  A
C76         C895   1.487       .  S
C77          C78   1.406       .  A
C77          H81   1.082       .  S
C78          C79   1.405       .  A
C78        C1049   1.492       .  S
C79          H82   1.082       .  S
O83         Cu91   2.014       .  S
O83          C93   1.279       .  A
O84         Cu91   2.017       .  S
O84          C94   1.279       .  A
O85         Cu91   2.001       .  S
O85          C95   1.277       .  A
O86         Cu91   1.998       .  S
O86          C96   1.277       .  A
O87         Cu92   2.017       .  S
O87          C96   1.279       .  A
O88         Cu92   2.016       .  S
O88          C95   1.279       .  A
O89         Cu92   2.004       .  S
O89          C94   1.278       .  A
O90         Cu92   2.009       .  S
O90          C93   1.278       .  A
Cu91        Cu92   2.370       .  S
C93         C807   1.482       .  S
C94         C873   1.480       .  S
C95         C785   1.476       .  S
C96         C961   1.480       .  S
C97          C98   1.406       .  A
C97         C102   1.407       .  A
C97         C729   1.492       .  S
C98          C99   1.408       .  A
C98         H103   1.082       .  S
C99         C100   1.406       .  A
C99         C751   1.488       .  S
C100        C101   1.405       .  A
C100        H104   1.083       .  S
C101        C102   1.404       .  A
C101        C707   1.491       .  S
C102        H105   1.083       .  S
C106        C107   1.407       .  A
C106        C111   1.404       .  A
C106        C685   1.495       .  S
C107        C108   1.413       .  A
C107        H112   1.080       .  S
C108        C109   1.411       .  A
C108        C663   1.501       .  S
C109        C110   1.406       .  A
C109        H113   1.082       .  S
C110        C111   1.401       .  A
C110        C763   1.486       .  S
C111        H114   1.083       .  S
C115        C116   1.409       .  A
C115        C120   1.407       .  A
C115        C631   1.493       .  S
C116        C117   1.407       .  A
C116        H121   1.082       .  S
C117        C118   1.405       .  A
C117        C641   1.491       .  S
C118        C119   1.406       .  A
C118        H122   1.083       .  S
C119        C120   1.406       .  A
C119       C1081   1.491       .  S
C120        H123   1.082       .  S
C124        C125   1.408       .  A
C124        C129   1.406       .  A
C124        C597   1.494       .  S
C125        C126   1.405       .  A
C125        H130   1.082       .  S
C126        C127   1.405       .  A
C126        C653   1.490       .  S
C127        C128   1.408       .  A
C127        H131   1.082       .  S
C128        C129   1.407       .  A
C128        C773   1.495       .  S
C129        H132   1.080       .  S
O133       Cu141   2.010       .  S
O133        C143   1.278       .  A
O134       Cu141   2.015       .  S
O134        C144   1.279       .  A
O135       Cu141   2.010       .  S
O135        C145   1.278       .  A
O136       Cu141   2.019       .  S
O136        C146   1.279       .  A
O137       Cu142   2.001       .  S
O137        C146   1.278       .  A
O138       Cu142   2.011       .  S
O138        C145   1.278       .  A
O139       Cu142   2.003       .  S
O139        C144   1.277       .  A
O140       Cu142   2.010       .  S
O140        C143   1.278       .  A
Cu141      Cu142   2.372       .  S
C143        C927   1.479       .  S
C144        C609   1.479       .  S
C145       C1235   1.480       .  S
C146        C697   1.480       .  S
O147       Cu155   2.000       .  S
O147        C157   1.278       .  A
O148       Cu155   2.014   1_455  S
O148        C158   1.279       .  A
O149       Cu155   2.005       .  S
O149        C159   1.277       .  A
O150       Cu155   2.010   1_455  S
O150        C160   1.277       .  A
O151       Cu156   2.004       .  S
O151        C160   1.278       .  A
O152       Cu156   2.004   1_655  S
O152        C159   1.277       .  A
O153       Cu156   2.006       .  S
O153        C158   1.278       .  A
O154       Cu156   2.017   1_655  S
O154        C157   1.279       .  A
Cu155      Cu156   2.374   1_655  S
C157        C553   1.477       .  S
C158        C619   1.480       .  S
C159        C575   1.469       .  S
C160        C741   1.475       .  S
C161        C162   1.404       .  A
C161        C166   1.406       .  A
C161        C565   1.493       .  S
C162        C163   1.403       .  A
C162        H167   1.082       .  S
C163        C164   1.406       .  A
C163       C1125   1.489       .  S
C164        C165   1.408       .  A
C164        H168   1.083       .  S
C165        C166   1.408       .  A
C165        C531   1.488       .  S
C166        H169   1.082       .  S
C170        C171   1.406       .  A
C170        C175   1.406       .  A
C170        C521   1.495       .  S
C171        C172   1.406       .  A
C171        H176   1.081       .  S
C172        C173   1.407       .  A
C172       C1005   1.498       .  S
C173        C174   1.407       .  A
C173        H177   1.082       .  S
C174        C175   1.407       .  A
C174        C543   1.488       .  S
C175        H178   1.081       .  S
O179       Cu187   2.004       .  S
O179        C189   1.277       .  A
O180       Cu187   1.999       .  S
O180        C190   1.277       .  A
O181       Cu187   2.004       .  S
O181        C191   1.278       .  A
O182       Cu187   2.002       .  S
O182        C192   1.278       .  A
O183       Cu188   2.013       .  S
O183        C192   1.278       .  A
O184       Cu188   2.013       .  S
O184        C191   1.279       .  A
O185       Cu188   2.014       .  S
O185        C190   1.278       .  A
O186       Cu188   2.010       .  S
O186        C189   1.279       .  A
Cu187      Cu188   2.373       .  S
C189       C1191   1.477       .  S
C190        C487   1.475       .  S
C191        C917   1.480       .  S
C192        C509   1.476       .  S
C193        C194   1.408       .  A
C193        C198   1.406       .  A
C193        C455   1.494       .  S
C194        C195   1.406       .  A
C194        H199   1.082       .  S
C195        C196   1.404       .  A
C195        C465   1.487       .  S
C196        C197   1.404       .  A
C196        H200   1.082       .  S
C197        C198   1.406       .  A
C197        C587   1.489       .  S
C198        H201   1.081       .  S
C202        C203   1.404       .  A
C202        C207   1.405       .  A
C202        C499   1.490       .  S
C203        C204   1.404       .  A
C203        H208   1.082       .  S
C204        C205   1.406       .  A
C204        C421   1.490       .  S
C205        C206   1.406       .  A
C205        H209   1.083       .  S
C206        C207   1.406       .  A
C206        C477   1.484       .  S
C207        H210   1.082       .  S
O211       Cu219   2.011       .  S
O211        C221   1.278       .  A
O212       Cu219   2.009       .  S
O212        C222   1.279       .  A
O213       Cu219   2.024       .  S
O213        C223   1.280       .  A
O214       Cu219   2.027       .  S
O214        C224   1.280       .  A
O215       Cu220   2.007       .  S
O215        C224   1.278       .  A
O216       Cu220   2.013       .  S
O216        C223   1.278       .  A
O217       Cu220   2.013       .  S
O217        C222   1.278       .  A
O218       Cu220   2.010       .  S
O218        C221   1.278       .  A
Cu219      Cu220   2.369       .  S
C221        C851   1.476       .  S
C222        C399   1.481       .  S
C223       C1225   1.484       .  S
C224        C675   1.484       .  S
C225        C226   1.408       .  A
C225        C230   1.409       .  A
C225        C355   1.496       .  S
C226        C227   1.406       .  A
C226        H231   1.083       .  S
C227        C228   1.405       .  A
C227        C377   1.487       .  S
C228        C229   1.406       .  A
C228        H232   1.083       .  S
C229        C230   1.407       .  A
C229       C1159   1.491       .  S
C230        H233   1.082       .  S
C234        C235   1.406       .  A
C234        C239   1.405       .  A
C234        C411   1.492       .  S
C235        C236   1.405       .  A
C235        H240   1.083       .  S
C236        C237   1.407       .  A
C236        C389   1.488       .  S
C237        C238   1.407       .  A
C237        H241   1.083       .  S
C238        C239   1.407       .  A
C238        C795   1.492       .  S
C239        H242   1.082       .  S
O243       Cu251   2.021   1_565  S
O243        C253   1.279       .  A
O244       Cu251   2.019       .  S
O244        C254   1.280       .  A
O245       Cu251   2.011   1_565  S
O245        C255   1.278       .  A
O246       Cu251   2.007       .  S
O246        C256   1.277       .  A
O247       Cu252   2.016   1_545  S
O247        C256   1.279       .  A
O248       Cu252   2.013       .  S
O248        C255   1.279       .  A
O249       Cu252   2.004   1_545  S
O249        C254   1.278       .  A
O250       Cu252   1.999       .  S
O250        C253   1.277       .  A
Cu251      Cu252   2.370   1_545  S
C253        C719   1.476       .  S
C254        C443   1.483       .  S
C255        C367   1.482       .  S
C256        C345   1.476       .  S
C257        C258   1.405       .  A
C257        C262   1.405       .  A
C257        C333   1.492       .  S
C258        C259   1.408       .  A
C258        H263   1.082       .  S
C259        C260   1.407       .  A
C259       C1115   1.496       .  S
C260        C261   1.406       .  A
C260        H264   1.081       .  S
C261        C262   1.405       .  A
C261        C311   1.486       .  S
C262        H265   1.083       .  S
C266        C267   1.404       .  A
C266        C271   1.406       .  A
C266        C289   1.492       .  S
C267        C268   1.404       .  A
C267        H272   1.083       .  S
C268        C269   1.407       .  A
C268        C323   1.482       .  S
C269        C270   1.406       .  A
C269        H273   1.082       .  S
C270        C271   1.407       .  A
C270       C1027   1.495       .  S
C271        H274   1.082       .  S
O275       Cu283   2.007       .  S
O275        C285   1.278       .  A
O276       Cu283   2.007       .  S
O276        C286   1.278       .  A
O277       Cu283   2.005       .  S
O277        C287   1.278       .  A
O278       Cu283   2.017       .  S
O278        C288   1.279       .  A
O279       Cu284   1.990       .  S
O279        C288   1.276       .  A
O280       Cu284   2.001       .  S
O280        C287   1.277       .  A
O281       Cu284   2.005       .  S
O281        C286   1.278       .  A
O282       Cu284   2.002       .  S
O282        C285   1.277       .  A
Cu283      Cu284   2.374       .  S
C285       C1181   1.473       .  S
C286        C433   1.474       .  S
C287        C829   1.474       .  S
C288        C301   1.474       .  S
C289        C290   1.403       .  A
C289        C294   1.407       .  A
C290        C291   1.391       .  A
C290        H303   1.083       .  S
C291        C292   1.411       .  A
C291        H304   1.077       .  S
C292        C298   1.425       .  A
C292        C293   1.420       .  A
C293        C295   1.401       .  A
C293        C294   1.407       .  A
C294        H305   1.083       .  S
C295        C296   1.393       .  A
C295        H306   1.084       .  S
C296        C297   1.400       .  A
C296        H307   1.084       .  S
C297        C298   1.422       .  A
C297        C302   1.407       .  A
C298        C299   1.413       .  A
C299        C300   1.391       .  A
C299        H308   1.077       .  S
C300        C301   1.399       .  A
C300        H309   1.084       .  S
C301        C302   1.402       .  A
C302        H310   1.084       .  S
C311        C312   1.401       .  A
C311        C316   1.402       .  A
C312        C313   1.395       .  A
C312        H325   1.083       .  S
C313        C314   1.414       .  A
C313        H326   1.077       .  S
C314        C320   1.429       .  A
C314        C315   1.422       .  A
C315        C317   1.399       .  A
C315        C316   1.404       .  A
C316        H327   1.084       .  S
C317        C318   1.389       .  A
C317        H328   1.084       .  S
C318        C319   1.399       .  A
C318        H329   1.084       .  S
C319        C320   1.422       .  A
C319        C324   1.403       .  A
C320        C321   1.416       .  A
C321        C322   1.396       .  A
C321        H330   1.077       .  S
C322        C323   1.399       .  A
C322        H331   1.083       .  S
C323        C324   1.401       .  A
C324        H332   1.085       .  S
C333        C334   1.403       .  A
C333        C338   1.404       .  A
C334        C335   1.399       .  A
C334        H347   1.083       .  S
C335        C336   1.415       .  A
C335        H348   1.077       .  S
C336        C342   1.431       .  A
C336        C337   1.421       .  A
C337        C339   1.399       .  A
C337        C338   1.403       .  A
C338        H349   1.084       .  S
C339        C340   1.388       .  A
C339        H350   1.084       .  S
C340        C341   1.399       .  A
C340        H351   1.084       .  S
C341        C342   1.423       .  A
C341        C346   1.404       .  A
C342        C343   1.416       .  A
C343        C344   1.398       .  A
C343        H352   1.077       .  S
C344        C345   1.399       .  A
C344        H353   1.083       .  S
C345        C346   1.400       .  A
C346        H354   1.085       .  S
C355        C356   1.403       .  A
C355        C360   1.406       .  A
C356        C357   1.396       .  A
C356        H369   1.083       .  S
C357        C358   1.413       .  A
C357        H370   1.077       .  S
C358        C364   1.431       .  A
C358        C359   1.422       .  A
C359        C361   1.400       .  A
C359        C360   1.407       .  A
C360        H371   1.084       .  S
C361        C362   1.391       .  A
C361        H372   1.084       .  S
C362        C363   1.400       .  A
C362        H373   1.084       .  S
C363        C364   1.422       .  A
C363        C368   1.406       .  A
C364        C365   1.415       .  A
C365        C366   1.397       .  A
C365        H374   1.077       .  S
C366        C367   1.400       .  A
C366        H375   1.083       .  S
C367        C368   1.403       .  A
C368        H376   1.084       .  S
C377        C378   1.401       .  A
C377        C382   1.403       .  A
C378        C379   1.397       .  A
C378        H391   1.083       .  S
C379        C380   1.415       .  A
C379        H392   1.077       .  S
C380        C386   1.431       .  A
C380        C381   1.423       .  A
C381        C383   1.399       .  A
C381        C382   1.406       .  A
C382        H393   1.084       .  S
C383        C384   1.390       .  A
C383        H394   1.084       .  S
C384        C385   1.400       .  A
C384        H395   1.084       .  S
C385        C386   1.422       .  A
C385        C390   1.405       .  A
C386        C387   1.416       .  A
C387        C388   1.398       .  A
C387        H396   1.077       .  S
C388        C389   1.401       .  A
C388        H397   1.083       .  S
C389        C390   1.403       .  A
C390        H398   1.084       .  S
C399        C400   1.400       .  A
C399        C404   1.402       .  A
C400        C401   1.396       .  A
C400        H413   1.083       .  S
C401        C402   1.414       .  A
C401        H414   1.077       .  S
C402        C408   1.430       .  A
C402        C403   1.423       .  A
C403        C405   1.399       .  A
C403        C404   1.406       .  A
C404        H415   1.084       .  S
C405        C406   1.390       .  A
C405        H416   1.084       .  S
C406        C407   1.400       .  A
C406        H417   1.084       .  S
C407        C408   1.421       .  A
C407        C412   1.405       .  A
C408        C409   1.415       .  A
C409        C410   1.397       .  A
C409        H418   1.077       .  S
C410        C411   1.402       .  A
C410        H419   1.083       .  S
C411        C412   1.405       .  A
C412        H420   1.084       .  S
C421        C422   1.404       .  A
C421        C426   1.404       .  A
C422        C423   1.393       .  A
C422        H435   1.083       .  S
C423        C424   1.412   1_655  A
C423        H436   1.078       .  S
C424        C430   1.427       .  A
C424        C425   1.422   1_455  A
C425        C427   1.400   1_655  A
C425        C426   1.406       .  A
C426        H437   1.084       .  S
C427        C428   1.391       .  A
C427        H438   1.084   1_455  S
C428        C429   1.400       .  A
C428        H439   1.084       .  S
C429        C430   1.421       .  A
C429        C434   1.404       .  A
C430        C431   1.415       .  A
C431        C432   1.395       .  A
C431        H440   1.078       .  S
C432        C433   1.399       .  A
C432        H441   1.083       .  S
C433        C434   1.401       .  A
C434        H442   1.085       .  S
C443        C444   1.401       .  A
C443        C448   1.403       .  A
C444        C445   1.395       .  A
C444        H457   1.083       .  S
C445        C446   1.414       .  A
C445        H458   1.077       .  S
C446        C452   1.430       .  A
C446        C447   1.422       .  A
C447        C449   1.400       .  A
C447        C448   1.407       .  A
C448        H459   1.084       .  S
C449        C450   1.391       .  A
C449        H460   1.084       .  S
C450        C451   1.400       .  A
C450        H461   1.084       .  S
C451        C452   1.421       .  A
C451        C456   1.406       .  A
C452        C453   1.414       .  A
C453        C454   1.396       .  A
C453        H462   1.077       .  S
C454        C455   1.403       .  A
C454        H463   1.082       .  S
C455        C456   1.406       .  A
C456        H464   1.083       .  S
C465        C466   1.401       .  A
C465        C470   1.403       .  A
C466        C467   1.397       .  A
C466        H479   1.083       .  S
C467        C468   1.416       .  A
C467        H480   1.077       .  S
C468        C474   1.430       .  A
C468        C469   1.422       .  A
C469        C471   1.399       .  A
C469        C470   1.403       .  A
C470        H481   1.084       .  S
C471        C472   1.389       .  A
C471        H482   1.084       .  S
C472        C473   1.399       .  A
C472        H483   1.084       .  S
C473        C474   1.423       .  A
C473        C478   1.404       .  A
C474        C475   1.415       .  A
C475        C476   1.396       .  A
C475        H484   1.077       .  S
C476        C477   1.401       .  A
C476        H485   1.083       .  S
C477        C478   1.401       .  A
C478        H486   1.085       .  S
C487        C488   1.399       .  A
C487        C492   1.402       .  A
C488        C489   1.392       .  A
C488        H501   1.084       .  S
C489        C490   1.413       .  A
C489        H502   1.077       .  S
C490        C496   1.427       .  A
C490        C491   1.422       .  A
C491        C493   1.400       .  A
C491        C492   1.407       .  A
C492        H503   1.084       .  S
C493        C494   1.392       .  A
C493        H504   1.084       .  S
C494        C495   1.400   1_565  A
C494        H505   1.084   1_565  S
C495        C496   1.421   1_545  A
C495        C500   1.407       .  A
C496        C497   1.412   1_565  A
C497        C498   1.392       .  A
C497        H506   1.077       .  S
C498        C499   1.403       .  A
C498        H507   1.083       .  S
C499        C500   1.405       .  A
C500        H508   1.084       .  S
C509        C510   1.399       .  A
C509        C514   1.402       .  A
C510        C511   1.393       .  A
C510        H523   1.084       .  S
C511        C512   1.414       .  A
C511        H524   1.077       .  S
C512        C518   1.427       .  A
C512        C513   1.422       .  A
C513        C515   1.400       .  A
C513        C514   1.407       .  A
C514        H525   1.084       .  S
C515        C516   1.392       .  A
C515        H526   1.084       .  S
C516        C517   1.401       .  A
C516        H527   1.084       .  S
C517        C518   1.421       .  A
C517        C522   1.408       .  A
C518        C519   1.411       .  A
C519        C520   1.392       .  A
C519        H528   1.077       .  S
C520        C521   1.404       .  A
C520        H529   1.083       .  S
C521        C522   1.406       .  A
C522        H530   1.083       .  S
C531        C532   1.402       .  A
C531        C536   1.403       .  A
C532        C533   1.396       .  A
C532        H545   1.083       .  S
C533        C534   1.415       .  A
C533        H546   1.077       .  S
C534        C540   1.430       .  A
C534        C535   1.422       .  A
C535        C537   1.399       .  A
C535        C536   1.405       .  A
C536        H547   1.084       .  S
C537        C538   1.390       .  A
C537        H548   1.084       .  S
C538        C539   1.399       .  A
C538        H549   1.084       .  S
C539        C540   1.422       .  A
C539        C544   1.405       .  A
C540        C541   1.414       .  A
C541        C542   1.395       .  A
C541        H550   1.077       .  S
C542        C543   1.402       .  A
C542        H551   1.083       .  S
C543        C544   1.403       .  A
C544        H552   1.084       .  S
C553        C554   1.399       .  A
C553        C558   1.402       .  A
C554        C555   1.393       .  A
C554        H567   1.084       .  S
C555        C556   1.414       .  A
C555        H568   1.077       .  S
C556        C562   1.427       .  A
C556        C557   1.421       .  A
C557        C559   1.400       .  A
C557        C558   1.407       .  A
C558        H569   1.084       .  S
C559        C560   1.393       .  A
C559        H570   1.084       .  S
C560        C561   1.401       .  A
C560        H571   1.084       .  S
C561        C562   1.421       .  A
C561        C566   1.408       .  A
C562        C563   1.411       .  A
C563        C564   1.392       .  A
C563        H572   1.077       .  S
C564        C565   1.404       .  A
C564        H573   1.083       .  S
C565        C566   1.406       .  A
C566        H574   1.083       .  S
C575        C576   1.398       .  A
C575        C580   1.399       .  A
C576        C577   1.395       .  A
C576        H589   1.084       .  S
C577        C578   1.415       .  A
C577        H590   1.077       .  S
C578        C584   1.427       .  A
C578        C579   1.422       .  A
C579        C581   1.399       .  A
C579        C580   1.403       .  A
C580        H591   1.085       .  S
C581        C582   1.390       .  A
C581        H592   1.084       .  S
C582        C583   1.400       .  A
C582        H593   1.084       .  S
C583        C584   1.421       .  A
C583        C588   1.404       .  A
C584        C585   1.413       .  A
C585        C586   1.394       .  A
C585        H594   1.077       .  S
C586        C587   1.403       .  A
C586        H595   1.083       .  S
C587        C588   1.404       .  A
C588        H596   1.084       .  S
C597        C598   1.403       .  A
C597        C602   1.406       .  A
C598        C599   1.395       .  A
C598        H611   1.082       .  S
C599        C600   1.413       .  A
C599        H612   1.077       .  S
C600        C606   1.429       .  A
C600        C601   1.420       .  A
C601        C603   1.400       .  A
C601        C602   1.405       .  A
C602        H613   1.083       .  S
C603        C604   1.390       .  A
C603        H614   1.084       .  S
C604        C605   1.400       .  A
C604        H615   1.084       .  S
C605        C606   1.422       .  A
C605        C610   1.405       .  A
C606        C607   1.414       .  A
C607        C608   1.395       .  A
C607        H616   1.077       .  S
C608        C609   1.401       .  A
C608        H617   1.083       .  S
C609        C610   1.402       .  A
C610        H618   1.084       .  S
C619        C620   1.401       .  A
C619        C624   1.401       .  A
C620        C621   1.398       .  A
C620        H633   1.083       .  S
C621        C622   1.415       .  A
C621        H634   1.077       .  S
C622        C628   1.431       .  A
C622        C623   1.422       .  A
C623        C625   1.399       .  A
C623        C624   1.404       .  A
C624        H635   1.084       .  S
C625        C626   1.389       .  A
C625        H636   1.084       .  S
C626        C627   1.399       .  A
C626        H637   1.084       .  S
C627        C628   1.422       .  A
C627        C632   1.405       .  A
C628        C629   1.414       .  A
C629        C630   1.397       .  A
C629        H638   1.077       .  S
C630        C631   1.404       .  A
C630        H639   1.083       .  S
C631        C632   1.404       .  A
C632        H640   1.083       .  S
C641        C642   1.401       .  A
C641        C646   1.404       .  A
C642        C643   1.398       .  A
C642        H655   1.083       .  S
C643        C644   1.416       .  A
C643        H656   1.077       .  S
C644        C650   1.432       .  A
C644        C645   1.422       .  A
C645        C647   1.400       .  A
C645        C646   1.405       .  A
C646        H657   1.084       .  S
C647        C648   1.390       .  A
C647        H658   1.084       .  S
C648        C649   1.399       .  A
C648        H659   1.084       .  S
C649        C650   1.423       .  A
C649        C654   1.406       .  A
C650        C651   1.415       .  A
C651        C652   1.397       .  A
C651        H660   1.077       .  S
C652        C653   1.402       .  A
C652        H661   1.083       .  S
C653        C654   1.403       .  A
C654        H662   1.084       .  S
C663        C664   1.405       .  A
C663        C668   1.409       .  A
C664        C665   1.394       .  A
C664        H677   1.082       .  S
C665        C666   1.412       .  A
C665        H678   1.078       .  S
C666        C672   1.430   1_455  A
C666        C667   1.420       .  A
C667        C669   1.402       .  A
C667        C668   1.410       .  A
C668        H679   1.083       .  S
C669        C670   1.394   1_455  A
C669        H680   1.084       .  S
C670        C671   1.401       .  A
C670        H681   1.084       .  S
C671        C672   1.422       .  A
C671        C676   1.411       .  A
C672        C673   1.413       .  A
C673        C674   1.394       .  A
C673        H682   1.077       .  S
C674        C675   1.401       .  A
C674        H683   1.083       .  S
C675        C676   1.405       .  A
C676        H684   1.084       .  S
C685        C686   1.403       .  A
C685        C690   1.407       .  A
C686        C687   1.392       .  A
C686        H699   1.083       .  S
C687        C688   1.412       .  A
C687        H700   1.077       .  S
C688        C694   1.428   1_565  A
C688        C689   1.421       .  A
C689        C691   1.401       .  A
C689        C690   1.409       .  A
C690        H701   1.083       .  S
C691        C692   1.393       .  A
C691        H702   1.084       .  S
C692        C693   1.401   1_565  A
C692        H703   1.084       .  S
C693        C694   1.422       .  A
C693        C698   1.408       .  A
C694        C695   1.413       .  A
C695        C696   1.393       .  A
C695        H704   1.077       .  S
C696        C697   1.400       .  A
C696        H705   1.083       .  S
C697        C698   1.404       .  A
C698        H706   1.084       .  S
C707        C708   1.403       .  A
C707        C712   1.404       .  A
C708        C709   1.395       .  A
C708        H721   1.083       .  S
C709        C710   1.414       .  A
C709        H722   1.077       .  S
C710        C716   1.430       .  A
C710        C711   1.422       .  A
C711        C713   1.400       .  A
C711        C712   1.406       .  A
C712        H723   1.084       .  S
C713        C714   1.391       .  A
C713        H724   1.084       .  S
C714        C715   1.399       .  A
C714        H725   1.084       .  S
C715        C716   1.423       .  A
C715        C720   1.407       .  A
C716        C717   1.414       .  A
C717        C718   1.395       .  A
C717        H726   1.077       .  S
C718        C719   1.399       .  A
C718        H727   1.084       .  S
C719        C720   1.400       .  A
C720        H728   1.085       .  S
C729        C730   1.403       .  A
C729        C734   1.406       .  A
C730        C731   1.392       .  A
C730        H743   1.083       .  S
C731        C732   1.412       .  A
C731        H744   1.077       .  S
C732        C738   1.427       .  A
C732        C733   1.421       .  A
C733        C735   1.401       .  A
C733        C734   1.409       .  A
C734        H745   1.083       .  S
C735        C736   1.393       .  A
C735        H746   1.084       .  S
C736        C737   1.401       .  A
C736        H747   1.084       .  S
C737        C738   1.422       .  A
C737        C742   1.407       .  A
C738        C739   1.414       .  A
C739        C740   1.393       .  A
C739        H748   1.077       .  S
C740        C741   1.398       .  A
C740        H749   1.084       .  S
C741        C742   1.402       .  A
C742        H750   1.084       .  S
C751        C752   1.401       .  A
C751        C756   1.403       .  A
C752        C753   1.396       .  A
C752        H765   1.083       .  S
C753        C754   1.415       .  A
C753        H766   1.077       .  S
C754        C760   1.431       .  A
C754        C755   1.422       .  A
C755        C757   1.400       .  A
C755        C756   1.406       .  A
C756        H767   1.084       .  S
C757        C758   1.390       .  A
C757        H768   1.084       .  S
C758        C759   1.399       .  A
C758        H769   1.084       .  S
C759        C760   1.423       .  A
C759        C764   1.406       .  A
C760        C761   1.414       .  A
C761        C762   1.395       .  A
C761        H770   1.077       .  S
C762        C763   1.402       .  A
C762        H771   1.083       .  S
C763        C764   1.401       .  A
C764        H772   1.085       .  S
C773        C774   1.404       .  A
C773        C778   1.406       .  A
C774        C775   1.396       .  A
C774        H787   1.082       .  S
C775        C776   1.413       .  A
C775        H788   1.078       .  S
C776        C782   1.429   1_455  A
C776        C777   1.421       .  A
C777        C779   1.400       .  A
C777        C778   1.404       .  A
C778        H789   1.083       .  S
C779        C780   1.390   1_455  A
C779        H790   1.084       .  S
C780        C781   1.399       .  A
C780        H791   1.084       .  S
C781        C782   1.422       .  A
C781        C786   1.404       .  A
C782        C783   1.415       .  A
C783        C784   1.397       .  A
C783        H792   1.077       .  S
C784        C785   1.399       .  A
C784        H793   1.083       .  S
C785        C786   1.401       .  A
C786        H794   1.085       .  S
C795        C796   1.403       .  A
C795        C800   1.405       .  A
C796        C797   1.395       .  A
C796        H809   1.083       .  S
C797        C798   1.413       .  A
C797        H810   1.077       .  S
C798        C804   1.430   1_565  A
C798        C799   1.422       .  A
C799        C801   1.400   1_565  A
C799        C800   1.407       .  A
C800        H811   1.084       .  S
C801        C802   1.391       .  A
C801        H812   1.084       .  S
C802        C803   1.400       .  A
C802        H813   1.084       .  S
C803        C804   1.422       .  A
C803        C808   1.406       .  A
C804        C805   1.415       .  A
C805        C806   1.396       .  A
C805        H814   1.077   1_545  S
C806        C807   1.400       .  A
C806        H815   1.083       .  S
C807        C808   1.403       .  A
C808        H816   1.084       .  S
C817        C818   1.400       .  A
C817        C822   1.402       .  A
C818        C819   1.395       .  A
C818        H831   1.083       .  S
C819        C820   1.415       .  A
C819        H832   1.077       .  S
C820        C826   1.428       .  A
C820        C821   1.422       .  A
C821        C823   1.399       .  A
C821        C822   1.403       .  A
C822        H833   1.084       .  S
C823        C824   1.389       .  A
C823        H834   1.084       .  S
C824        C825   1.399       .  A
C824        H835   1.084       .  S
C825        C826   1.423       .  A
C825        C830   1.404       .  A
C826        C827   1.414       .  A
C827        C828   1.394       .  A
C827        H836   1.077       .  S
C828        C829   1.399       .  A
C828        H837   1.083       .  S
C829        C830   1.400       .  A
C830        H838   1.085       .  S
C839        C840   1.403       .  A
C839        C844   1.404       .  A
C840        C841   1.394       .  A
C840        H853   1.083       .  S
C841        C842   1.412       .  A
C841        H854   1.077       .  S
C842        C848   1.429       .  A
C842        C843   1.423       .  A
C843        C845   1.400       .  A
C843        C844   1.407       .  A
C844        H855   1.084       .  S
C845        C846   1.391       .  A
C845        H856   1.084       .  S
C846        C847   1.400       .  A
C846        H857   1.084       .  S
C847        C848   1.422       .  A
C847        C852   1.406       .  A
C848        C849   1.416       .  A
C849        C850   1.396       .  A
C849        H858   1.077       .  S
C850        C851   1.399       .  A
C850        H859   1.083       .  S
C851        C852   1.401       .  A
C852        H860   1.085       .  S
C861        C862   1.405       .  A
C861        C866   1.407       .  A
C862        C863   1.394       .  A
C862        H875   1.082       .  S
C863        C864   1.411       .  A
C863        H876   1.077       .  S
C864        C870   1.428       .  A
C864        C865   1.421       .  A
C865        C867   1.400       .  A
C865        C866   1.407       .  A
C866        H877   1.083       .  S
C867        C868   1.392       .  A
C867        H878   1.084       .  S
C868        C869   1.400       .  A
C868        H879   1.084       .  S
C869        C870   1.422       .  A
C869        C874   1.407       .  A
C870        C871   1.414       .  A
C871        C872   1.395       .  A
C871        H880   1.077       .  S
C872        C873   1.401       .  A
C872        H881   1.083       .  S
C873        C874   1.402       .  A
C874        H882   1.084       .  S
C883        C884   1.402       .  A
C883        C888   1.404       .  A
C884        C885   1.395   1_655  A
C884        H897   1.083       .  S
C885        C886   1.414   1_454  A
C885        H898   1.077       .  S
C886        C892   1.429   1_655  A
C886        C887   1.422   1_556  A
C887        C889   1.400   1_554  A
C887        C888   1.405       .  A
C888        H899   1.084       .  S
C889        C890   1.390       .  A
C889        H900   1.084       .  S
C890        C891   1.399   1_655  A
C890        H901   1.084       .  S
C891        C892   1.423       .  A
C891        C896   1.406       .  A
C892        C893   1.413       .  A
C893        C894   1.393       .  A
C893        H902   1.077       .  S
C894        C895   1.402       .  A
C894        H903   1.083       .  S
C895        C896   1.403       .  A
C896        H904   1.084       .  S
C905        C906   1.402       .  A
C905        C910   1.404       .  A
C906        C907   1.396       .  A
C906        H919   1.083       .  S
C907        C908   1.414       .  A
C907        H920   1.077       .  S
C908        C914   1.429       .  A
C908        C909   1.421       .  A
C909        C911   1.400       .  A
C909        C910   1.404       .  A
C910        H921   1.084       .  S
C911        C912   1.390       .  A
C911        H922   1.084       .  S
C912        C913   1.399       .  A
C912        H923   1.084       .  S
C913        C914   1.422       .  A
C913        C918   1.405       .  A
C914        C915   1.414       .  A
C915        C916   1.396       .  A
C915        H924   1.077       .  S
C916        C917   1.401       .  A
C916        H925   1.083       .  S
C917        C918   1.402       .  A
C918        H926   1.084       .  S
C927        C928   1.400       .  A
C927        C932   1.402       .  A
C928        C929   1.396       .  A
C928        H941   1.083       .  S
C929        C930   1.415       .  A
C929        H942   1.077       .  S
C930        C936   1.430       .  A
C930        C931   1.422       .  A
C931        C933   1.400       .  A
C931        C932   1.405       .  A
C932        H943   1.084       .  S
C933        C934   1.390       .  A
C933        H944   1.084       .  S
C934        C935   1.400       .  A
C934        H945   1.084       .  S
C935        C936   1.422       .  A
C935        C940   1.406       .  A
C936        C937   1.413       .  A
C937        C938   1.395       .  A
C937        H946   1.077       .  S
C938        C939   1.403       .  A
C938        H947   1.083       .  S
C939        C940   1.404       .  A
C940        H948   1.084       .  S
C949        C950   1.403       .  A
C949        C954   1.406       .  A
C950        C951   1.395       .  A
C950        H963   1.082       .  S
C951        C952   1.414       .  A
C951        H964   1.077       .  S
C952        C958   1.428       .  A
C952        C953   1.420       .  A
C953        C955   1.400       .  A
C953        C954   1.405       .  A
C954        H965   1.083       .  S
C955        C956   1.391       .  A
C955        H966   1.084       .  S
C956        C957   1.400       .  A
C956        H967   1.084       .  S
C957        C958   1.423       .  A
C957        C962   1.407       .  A
C958        C959   1.412       .  A
C959        C960   1.393       .  A
C959        H968   1.077       .  S
C960        C961   1.401       .  A
C960        H969   1.083       .  S
C961        C962   1.402       .  A
C962        H970   1.084       .  S
C971        C972   1.401       .  A
C971        C976   1.402       .  A
C972        C973   1.397   1_565  A
C972        H985   1.083       .  S
C973        C974   1.416   1_545  A
C973        H986   1.076       .  S
C974        C980   1.431   1_565  A
C974        C975   1.422       .  A
C975        C977   1.399       .  A
C975        C976   1.403       .  A
C976        H987   1.084       .  S
C977        C978   1.389   1_556  A
C977        H988   1.084       .  S
C978        C979   1.399   1_565  A
C978        H989   1.084       .  S
C979        C980   1.423   1_554  A
C979        C984   1.404       .  A
C980        C981   1.415   1_556  A
C981        C982   1.397       .  A
C981        H990   1.076   1_554  S
C982        C983   1.401       .  A
C982        H991   1.083       .  S
C983        C984   1.401       .  A
C984        H992   1.084       .  S
C993        C994   1.400       .  A
C993        C998   1.403       .  A
C994        C995   1.393       .  A
C994       H1007   1.083       .  S
C995        C996   1.413       .  A
C995       H1008   1.077       .  S
C996       C1002   1.427       .  A
C996        C997   1.422       .  A
C997        C999   1.400       .  A
C997        C998   1.407       .  A
C998       H1009   1.084       .  S
C999       C1000   1.393       .  A
C999       H1010   1.084       .  S
C1000      C1001   1.401   1_455  A
C1000      H1011   1.084   1_455  S
C1001      C1002   1.420   1_655  A
C1001      C1006   1.408       .  A
C1002      C1003   1.411   1_455  A
C1003      C1004   1.392       .  A
C1003      H1012   1.077       .  S
C1004      C1005   1.405       .  A
C1004      H1013   1.082       .  S
C1005      C1006   1.408       .  A
C1006      H1014   1.083       .  S
C1015      C1016   1.400       .  A
C1015      C1020   1.404       .  A
C1016      C1017   1.393       .  A
C1016      H1029   1.083       .  S
C1017      C1018   1.413       .  A
C1017      H1030   1.078       .  S
C1018      C1024   1.429   1_565  A
C1018      C1019   1.422       .  A
C1019      C1021   1.401       .  A
C1019      C1020   1.410       .  A
C1020      H1031   1.084       .  S
C1021      C1022   1.394   1_565  A
C1021      H1032   1.084       .  S
C1022      C1023   1.401       .  A
C1022      H1033   1.084       .  S
C1023      C1024   1.421       .  A
C1023      C1028   1.409       .  A
C1024      C1025   1.412       .  A
C1025      C1026   1.392       .  A
C1025      H1034   1.078       .  S
C1026      C1027   1.404       .  A
C1026      H1035   1.082       .  S
C1027      C1028   1.407       .  A
C1028      H1036   1.083       .  S
C1037      C1038   1.400       .  A
C1037      C1042   1.402       .  A
C1038      C1039   1.393       .  A
C1038      H1051   1.083       .  S
C1039      C1040   1.414       .  A
C1039      H1052   1.077       .  S
C1040      C1046   1.428       .  A
C1040      C1041   1.422       .  A
C1041      C1043   1.400       .  A
C1041      C1042   1.406       .  A
C1042      H1053   1.084       .  S
C1043      C1044   1.391       .  A
C1043      H1054   1.084       .  S
C1044      C1045   1.400       .  A
C1044      H1055   1.084       .  S
C1045      C1046   1.421       .  A
C1045      C1050   1.406       .  A
C1046      C1047   1.412       .  A
C1047      C1048   1.393       .  A
C1047      H1056   1.077       .  S
C1048      C1049   1.403       .  A
C1048      H1057   1.082       .  S
C1049      C1050   1.406       .  A
C1050      H1058   1.083       .  S
C1059      C1060   1.402       .  A
C1059      C1064   1.403       .  A
C1060      C1061   1.395       .  A
C1060      H1073   1.083       .  S
C1061      C1062   1.414       .  A
C1061      H1074   1.078       .  S
C1062      C1068   1.427       .  A
C1062      C1063   1.421       .  A
C1063      C1065   1.399       .  A
C1063      C1064   1.403       .  A
C1064      H1075   1.084       .  S
C1065      C1066   1.389       .  A
C1065      H1076   1.084       .  S
C1066      C1067   1.399       .  A
C1066      H1077   1.084       .  S
C1067      C1068   1.422       .  A
C1067      C1072   1.403       .  A
C1068      C1069   1.414       .  A
C1069      C1070   1.395       .  A
C1069      H1078   1.078       .  S
C1070      C1071   1.401       .  A
C1070      H1079   1.083       .  S
C1071      C1072   1.401       .  A
C1072      H1080   1.084       .  S
C1081      C1082   1.402       .  A
C1081      C1086   1.405       .  A
C1082      C1083   1.395       .  A
C1082      H1095   1.083       .  S
C1083      C1084   1.414       .  A
C1083      H1096   1.077       .  S
C1084      C1090   1.429       .  A
C1084      C1085   1.421       .  A
C1085      C1087   1.400       .  A
C1085      C1086   1.405       .  A
C1086      H1097   1.084       .  S
C1087      C1088   1.390       .  A
C1087      H1098   1.084       .  S
C1088      C1089   1.399       .  A
C1088      H1099   1.084       .  S
C1089      C1090   1.423       .  A
C1089      C1094   1.406       .  A
C1090      C1091   1.414       .  A
C1091      C1092   1.394       .  A
C1091      H1100   1.077       .  S
C1092      C1093   1.400       .  A
C1092      H1101   1.083       .  S
C1093      C1094   1.401       .  A
C1094      H1102   1.084       .  S
C1103      C1104   1.400       .  A
C1103      C1108   1.403       .  A
C1104      C1105   1.395       .  A
C1104      H1117   1.083       .  S
C1105      C1106   1.414       .  A
C1105      H1118   1.078       .  S
C1106      C1112   1.428       .  A
C1106      C1107   1.422       .  A
C1107      C1109   1.400       .  A
C1107      C1108   1.407       .  A
C1108      H1119   1.084       .  S
C1109      C1110   1.392       .  A
C1109      H1120   1.084       .  S
C1110      C1111   1.401       .  A
C1110      H1121   1.084       .  S
C1111      C1112   1.421       .  A
C1111      C1116   1.407       .  A
C1112      C1113   1.412       .  A
C1113      C1114   1.394       .  A
C1113      H1122   1.078       .  S
C1114      C1115   1.405       .  A
C1114      H1123   1.082       .  S
C1115      C1116   1.407       .  A
C1116      H1124   1.083       .  S
C1125      C1126   1.403       .  A
C1125      C1130   1.403       .  A
C1126      C1127   1.393       .  A
C1126      H1139   1.083       .  S
C1127      C1128   1.412       .  A
C1127      H1140   1.077       .  S
C1128      C1134   1.427       .  A
C1128      C1129   1.422       .  A
C1129      C1131   1.400       .  A
C1129      C1130   1.407       .  A
C1130      H1141   1.084       .  S
C1131      C1132   1.391       .  A
C1131      H1142   1.084       .  S
C1132      C1133   1.400       .  A
C1132      H1143   1.084       .  S
C1133      C1134   1.422       .  A
C1133      C1138   1.405       .  A
C1134      C1135   1.415       .  A
C1135      C1136   1.395       .  A
C1135      H1144   1.077       .  S
C1136      C1137   1.399       .  A
C1136      H1145   1.084       .  S
C1137      C1138   1.400       .  A
C1138      H1146   1.085       .  S
C1147      C1148   1.400       .  A
C1147      C1152   1.401       .  A
C1148      C1149   1.398       .  A
C1148      H1161   1.083       .  S
C1149      C1150   1.415       .  A
C1149      H1162   1.077       .  S
C1150      C1156   1.432       .  A
C1150      C1151   1.423       .  A
C1151      C1153   1.399       .  A
C1151      C1152   1.406       .  A
C1152      H1163   1.085       .  S
C1153      C1154   1.390       .  A
C1153      H1164   1.084       .  S
C1154      C1155   1.400       .  A
C1154      H1165   1.084       .  S
C1155      C1156   1.422       .  A
C1155      C1160   1.406       .  A
C1156      C1157   1.415       .  A
C1157      C1158   1.398       .  A
C1157      H1166   1.077       .  S
C1158      C1159   1.402       .  A
C1158      H1167   1.083       .  S
C1159      C1160   1.404       .  A
C1160      H1168   1.084       .  S
C1169      C1170   1.404       .  A
C1169      C1174   1.403       .  A
C1170      C1171   1.395       .  A
C1170      H1183   1.083       .  S
C1171      C1172   1.412       .  A
C1171      H1184   1.078       .  S
C1172      C1178   1.427       .  A
C1172      C1173   1.422       .  A
C1173      C1175   1.399       .  A
C1173      C1174   1.404       .  A
C1174      H1185   1.084       .  S
C1175      C1176   1.389       .  A
C1175      H1186   1.084       .  S
C1176      C1177   1.399       .  A
C1176      H1187   1.084       .  S
C1177      C1178   1.421       .  A
C1177      C1182   1.403       .  A
C1178      C1179   1.415       .  A
C1179      C1180   1.396       .  A
C1179      H1188   1.078       .  S
C1180      C1181   1.399       .  A
C1180      H1189   1.083       .  S
C1181      C1182   1.400       .  A
C1182      H1190   1.085       .  S
C1191      C1192   1.399       .  A
C1191      C1196   1.401       .  A
C1192      C1193   1.396       .  A
C1192      H1205   1.083       .  S
C1193      C1194   1.415       .  A
C1193      H1206   1.077       .  S
C1194      C1200   1.429       .  A
C1194      C1195   1.422       .  A
C1195      C1197   1.400       .  A
C1195      C1196   1.404       .  A
C1196      H1207   1.084       .  S
C1197      C1198   1.390       .  A
C1197      H1208   1.084       .  S
C1198      C1199   1.399       .  A
C1198      H1209   1.084       .  S
C1199      C1200   1.422       .  A
C1199      C1204   1.405       .  A
C1200      C1201   1.413       .  A
C1201      C1202   1.395       .  A
C1201      H1210   1.077       .  S
C1202      C1203   1.403       .  A
C1202      H1211   1.083       .  S
C1203      C1204   1.403       .  A
C1204      H1212   1.084       .  S
C1213      C1214   1.403       .  A
C1213      C1218   1.403       .  A
C1214      C1215   1.399       .  A
C1214      H1227   1.083       .  S
C1215      C1216   1.415       .  A
C1215      H1228   1.078       .  S
C1216      C1222   1.434       .  A
C1216      C1217   1.423       .  A
C1217      C1219   1.399       .  A
C1217      C1218   1.407       .  A
C1218      H1229   1.084       .  S
C1219      C1220   1.390       .  A
C1219      H1230   1.084       .  S
C1220      C1221   1.399       .  A
C1220      H1231   1.084       .  S
C1221      C1222   1.423       .  A
C1221      C1226   1.406       .  A
C1222      C1223   1.417       .  A
C1223      C1224   1.401       .  A
C1223      H1232   1.078       .  S
C1224      C1225   1.401       .  A
C1224      H1233   1.083       .  S
C1225      C1226   1.402       .  A
C1226      H1234   1.085       .  S
C1235      C1236   1.401       .  A
C1235      C1240   1.401       .  A
C1236      C1237   1.398       .  A
C1236      H1249   1.083       .  S
C1237      C1238   1.416       .  A
C1237      H1250   1.078       .  S
C1238      C1244   1.431       .  A
C1238      C1239   1.422       .  A
C1239      C1241   1.399       .  A
C1239      C1240   1.404       .  A
C1240      H1251   1.084       .  S
C1241      C1242   1.389       .  A
C1241      H1252   1.084       .  S
C1242      C1243   1.399       .  A
C1242      H1253   1.084       .  S
C1243      C1244   1.421       .  A
C1243      C1248   1.405       .  A
C1244      C1245   1.414       .  A
C1245      C1246   1.398       .  A
C1245      H1254   1.078       .  S
C1246      C1247   1.405       .  A
C1246      H1255   1.082       .  S
C1247      C1248   1.405       .  A
C1248      H1256   1.083       .  S
C1257      C1258   1.402       .  A
C1257      C1262   1.402       .  A
C1258      C1259   1.398       .  A
C1258      H1271   1.083       .  S
C1259      C1260   1.415       .  A
C1259      H1272   1.077       .  S
C1260      C1266   1.432   1_554  A
C1260      C1261   1.423       .  A
C1261      C1263   1.399       .  A
C1261      C1262   1.406       .  A
C1262      H1273   1.084       .  S
C1263      C1264   1.390   1_554  A
C1263      H1274   1.084       .  S
C1264      C1265   1.399       .  A
C1264      H1275   1.084       .  S
C1265      C1266   1.423       .  A
C1265      C1270   1.405       .  A
C1266      C1267   1.416       .  A
C1267      C1268   1.398       .  A
C1267      H1276   1.077       .  S
C1268      C1269   1.400       .  A
C1268      H1277   1.083       .  S
C1269      C1270   1.401       .  A
C1270      H1278   1.085       .  S
