geometry optimzed in LAMMPS
_audit_creation_date              2020-11-30 
_audit_creation_method            'lammps2cif' 
_symmetry_space_group_name_H-M    'P1' 
_symmetry_Int_Tables_number       1 
_symmetry_cell_setting            triclinic 
loop_ 
_symmetry_equiv_pos_as_xyz 
  x,y,z 
_cell_length_a                    54.7211877 
_cell_length_b                    54.827722621806224 
_cell_length_c                    74.62347329968838 
_cell_angle_alpha                 90.7768079230011 
_cell_angle_beta                  89.47734253444506 
_cell_angle_gamma                 89.78447726697783 
loop_ 
_atom_site_label 
_atom_site_type_symbol 
_atom_site_fract_x 
_atom_site_fract_y 
_atom_site_fract_z 
_atom_site_charge 
O1          O  0.43725174  0.71642034  0.95380587    -0.57900
C2          C  0.45431093  0.71435361  0.89713350     0.74800
O3          O  0.49410825  0.69298277  0.92875776    -0.59000
C4          C  0.44163246  0.70193181  0.96652944     0.74700
C5          C  0.40958821  0.65589049  0.92333862     0.77100
Cd6        Cd  0.45077076  0.68651168  0.92975277     1.37500
O7          O  0.45587612  0.72437103  0.91251162    -0.57900
O8          O  0.40729506  0.67831323  0.92729625    -0.56700
C9          C  0.50049575  0.67124341  0.93162764     0.77100
O10         O  0.43119764  0.64748644  0.92240509    -0.59000
O11         O  0.44984514  0.69172865  0.89679488    -0.57500
O12         O  0.45064234  0.68149619  0.96204894    -0.57500
O13         O  0.48369936  0.65561921  0.93348676    -0.56600
O14         O  0.70015751  0.78577236  0.92481781    -0.57900
C15         C  0.71668476  0.77572038  0.98106078     0.74800
O16         O  0.68657546  0.71507464  0.94649250    -0.59000
C17         C  0.70988063  0.77570960  0.91113764     0.74700
C18         C  0.74688924  0.71513748  0.94448722     0.77100
Cd19       Cd  0.71092383  0.75253959  0.94596639     1.37500
O20         O  0.73450161  0.77397522  0.97018775    -0.57900
O21         O  0.75250198  0.73695389  0.94082839    -0.56700
C22         C  0.66606468  0.72563635  0.94568875     0.77100
O23         O  0.72518282  0.71143061  0.94974682    -0.59000
O24         O  0.69629137  0.76903868  0.97500031    -0.57500
O25         O  0.72164523  0.75632877  0.91384235    -0.57500
O26         O  0.66645643  0.74864942  0.94480068    -0.56600
O27         O  0.45989171  0.73020404  0.15336657    -0.57900
C28         C  0.44685135  0.71579039  0.09816011     0.74800
O29         O  0.48321739  0.66252789  0.13803847    -0.59000
C30         C  0.45417762  0.71916742  0.16759346     0.74700
C31         C  0.41315545  0.66067560  0.13167023     0.77100
Cd32       Cd  0.45247428  0.69455993  0.13303209     1.37500
O33         O  0.43359903  0.72317102  0.11119782    -0.57900
O34         O  0.40951659  0.68349093  0.13196717    -0.56700
C35         C  0.50072468  0.67553519  0.13247119     0.77100
O36         O  0.43519373  0.65358604  0.13177709    -0.59000
O37         O  0.46266698  0.69970737  0.10155358    -0.57500
O38         O  0.44640502  0.69767763  0.16566758    -0.57500
O39         O  0.49552544  0.69649068  0.12671732    -0.56600
O40         O  0.72794246  0.77108047  0.12534818    -0.57900
C41         C  0.71122837  0.76920779  0.18178375     0.74800
O42         O  0.68818764  0.70616833  0.15541273    -0.59000
C43         C  0.71400989  0.76273273  0.11327174     0.74700
C44         C  0.75457619  0.70941670  0.14394677     0.77100
Cd45       Cd  0.71390934  0.74165531  0.14876890     1.37500
O46         O  0.70366669  0.77767223  0.16715622    -0.57900
O47         O  0.75803202  0.73133229  0.14888135    -0.56700
C48         C  0.66821241  0.71727686  0.15287383     0.77100
O49         O  0.73266679  0.70243310  0.14264632    -0.59000
O50         O  0.72218703  0.74887840  0.18094703    -0.57500
O51         O  0.70007053  0.74564356  0.11801429    -0.57500
O52         O  0.66966129  0.73949249  0.14869300    -0.56600
O53         O  0.66453861  0.06967542  0.61389634    -0.57900
C54         C  0.66944252  0.04455335  0.67004253     0.74800
O55         O  0.72279571  0.02478147  0.62096734    -0.59000
C56         C  0.66599192  0.05147936  0.60325612     0.74700
C57         C  0.72569770  0.09382045  0.63386980     0.77100
Cd58       Cd  0.69403301  0.05273806  0.63622016     1.37500
O59         O  0.66328995  0.03346335  0.65579813    -0.57900
O60         O  0.70301677  0.09720979  0.63643756    -0.56700
C61         C  0.72791028  0.01272590  0.63477528     0.77100
O62         O  0.73314031  0.07202580  0.63358147    -0.59000
O63         O  0.68516886  0.06122154  0.66836360    -0.57500
O64         O  0.67821839  0.03363107  0.60886465    -0.57500
O65         O  0.71766669  0.01959686  0.64924746    -0.56600
O66         O  0.70302475  0.78489690  0.66708517    -0.57900
C67         C  0.71977150  0.77810727  0.61041813     0.74800
O68         O  0.76456317  0.82279227  0.64339428    -0.59000
C69         C  0.71554817  0.78653874  0.68127814     0.74700
C70         C  0.77000315  0.74574522  0.64457629     0.77100
Cd71       Cd  0.73783926  0.78656735  0.64614844     1.37500
O72         O  0.70597001  0.77394886  0.62382694    -0.57900
O73         O  0.74699121  0.74360736  0.64426673    -0.56700
C74         C  0.74670013  0.83737804  0.64154153     0.77100
O75         O  0.77848146  0.76699433  0.64730380    -0.59000
O76         O  0.74082430  0.78621197  0.61389356    -0.57500
O77         O  0.73853709  0.78704428  0.67932361    -0.57500
O78         O  0.72558554  0.82833123  0.64293160    -0.56600
O79         O  0.65149486  0.02495749  0.41851851    -0.57900
C80         C  0.66815716  0.05574703  0.47100000     0.74800
O81         O  0.71830855  0.01797959  0.42588387    -0.59000
C82         C  0.65326017  0.03698407  0.40423756     0.74700
C83         C  0.71480974  0.08639370  0.42591321     0.77100
Cd84       Cd  0.68456252  0.04601492  0.43450113     1.37500
O85         O  0.65308567  0.05591440  0.45818527    -0.57900
O86         O  0.69255528  0.08953350  0.43026738    -0.56700
C87         C  0.71111243  0.00089406  0.43581198     0.77100
O88         O  0.72290519  0.06475014  0.42615543    -0.59000
O89         O  0.69031433  0.05235754  0.46669802    -0.57500
O90         O  0.66784252  0.05474909  0.40447529    -0.57500
O91         O  0.69176783  0.00468005  0.44480678    -0.56600
O92         O  0.70230616  0.75642259  0.46593123    -0.57900
C93         C  0.71134128  0.77252437  0.40931003     0.74800
O94         O  0.75737700  0.81051052  0.44055036    -0.59000
C95         C  0.71236410  0.76676229  0.47927770     0.74700
C96         C  0.76799290  0.73420900  0.44152919     0.77100
Cd97       Cd  0.73275430  0.77276673  0.44422778     1.37500
O98         O  0.69775236  0.77431409  0.42313078    -0.57900
O99         O  0.74515021  0.73049472  0.44182246    -0.56700
C100        C  0.73877145  0.82423498  0.44267175     0.77100
O101        O  0.77486593  0.75617467  0.44358503    -0.59000
O102        O  0.73377264  0.76863276  0.41188735    -0.57500
O103        O  0.73168303  0.77870731  0.47629362    -0.57500
O104        O  0.71905474  0.81394949  0.44703253    -0.56600
C105        C  0.46475715  0.73940305  0.71436748     0.86400
C106        C  0.46134996  0.76662634  0.71019273    -0.53800
C107        C  0.46806055  0.77305366  0.69334300     0.09400
C108        C  0.47668689  0.75147680  0.68152289     0.20300
C109        C  0.44916790  0.72683377  0.69972692    -0.54500
C110        C  0.45577863  0.73291911  0.68254748     0.09500
C111        C  0.49132580  0.73379098  0.70906870    -0.54000
C112        C  0.49783924  0.73999093  0.69194482     0.10000
H113        H  0.45402798  0.77997531  0.71972014     0.14600
H114        H  0.48119334  0.75649627  0.66757543     0.00300
H115        H  0.43334690  0.71565582  0.70249046     0.14900
H116        H  0.50424568  0.72638982  0.71855522     0.14700
C117        C  0.40622049  0.98452985  0.71382737     0.86400
C118        C  0.43291460  0.99334658  0.71209108    -0.53800
C119        C  0.44448535  0.98629562  0.69664890     0.09400
C120        C  0.42875898  0.97057557  0.68422011     0.20300
C121        C  0.39384006  0.99318143  0.69669261    -0.54500
C122        C  0.40548204  0.98582615  0.68120463     0.09500
C123        C  0.40873755  0.95667085  0.71134393    -0.54000
C124        C  0.42031908  0.94897367  0.69585822     0.10000
H125        H  0.44259494  0.00354533  0.72232871     0.14600
H126        H  0.43876772  0.96547064  0.67177911     0.00300
H127        H  0.37686425  0.00350788  0.69680421     0.14900
H128        H  0.40236852  0.94414073  0.72141998     0.14700
C129        C  0.69851353  0.78950967  0.73174310     0.86400
C130        C  0.67592786  0.77352708  0.72840904    -0.53800
C131        C  0.66464065  0.77753885  0.71247343     0.09400
C132        C  0.67698465  0.79704424  0.70108349     0.20300
C133        C  0.71523746  0.78514317  0.71512968    -0.54500
C134        C  0.70366526  0.78867243  0.69908837     0.09500
C135        C  0.68965286  0.81601664  0.72890626    -0.54000
C136        C  0.67793399  0.81982993  0.71316732     0.10000
H137        H  0.66955903  0.76005761  0.73788940     0.14600
H138        H  0.66769961  0.80038450  0.68816457     0.00300
H139        H  0.73447048  0.78049233  0.71587472     0.14900
H140        H  0.69387701  0.83113157  0.73787213     0.14700
C141        C  0.65736980  0.03354379  0.72042889     0.86400
C142        C  0.66378514  0.00649560  0.71662966    -0.53800
C143        C  0.65520889  0.99739718  0.70084825     0.09400
C144        C  0.64145177  0.01623809  0.68973996     0.20300
C145        C  0.66827987  0.04636873  0.70380154    -0.54500
C146        C  0.65965575  0.03738940  0.68774246     0.09500
C147        C  0.62965256  0.03527751  0.71803279    -0.54000
C148        C  0.62124751  0.02620773  0.70220642     0.10000
H149        H  0.67366904  0.99515146  0.72596310     0.14600
H150        H  0.63462631  0.00849013  0.67691315     0.00300
H151        H  0.68294262  0.05950220  0.70422216     0.14900
H152        H  0.61746275  0.04242317  0.72844048     0.14700
C153        C  0.45599829  0.73899345  0.84878107     0.86400
C154        C  0.48321461  0.74547395  0.85029326    -0.53800
C155        C  0.49023219  0.75303900  0.86687270     0.09400
C156        C  0.46937817  0.75395882  0.88075831     0.20300
C157        C  0.45118378  0.72040089  0.86376161    -0.54500
C158        C  0.45795360  0.72840493  0.88051586     0.09500
C159        C  0.44316091  0.76265292  0.85556318    -0.54000
C160        C  0.45001542  0.77027166  0.87229704     0.10000
H161        H  0.49588720  0.74481401  0.83900063     0.14600
H162        H  0.47528976  0.76035556  0.89421999     0.00300
H163        H  0.44278240  0.70276547  0.86134509     0.14900
H164        H  0.43151375  0.77406583  0.84755684     0.14700
C165        C  0.40750695  0.97720135  0.84364974     0.86400
C166        C  0.40584310  0.95015106  0.84872871    -0.53800
C167        C  0.41640729  0.94469891  0.86463976     0.09400
C168        C  0.42681816  0.96680417  0.87462877     0.20300
C169        C  0.39511053  0.99059593  0.85991285    -0.54500
C170        C  0.40526239  0.98473553  0.87616338     0.09500
C171        C  0.43460200  0.98393181  0.84534341    -0.54000
C172        C  0.44463336  0.97851814  0.86136374     0.10000
H173        H  0.39793782  0.93622369  0.84008350     0.14600
H174        H  0.43551943  0.96217823  0.88754736     0.00300
H175        H  0.37992471  0.00321822  0.85899096     0.14900
H176        H  0.44510954  0.99224289  0.83462537     0.14700
C177        C  0.65816092  0.03645239  0.85149026     0.86400
C178        C  0.63108273  0.02899269  0.85212294    -0.53800
C179        C  0.62359174  0.01833494  0.86765895     0.09400
C180        C  0.64450279  0.01480844  0.88109906     0.20300
C181        C  0.66217728  0.05176676  0.86853927    -0.54500
C182        C  0.65515016  0.04052406  0.88403248     0.09500
C183        C  0.67149851  0.01218731  0.85504188    -0.54000
C184        C  0.66414321  0.00070154  0.87023386     0.10000
H185        H  0.61875231  0.03134372  0.84097025     0.14600
H186        H  0.63874604  0.00588313  0.89370363     0.00300
H187        H  0.66984163  0.07000060  0.86833807     0.14900
H188        H  0.68428258  0.00347946  0.84578643     0.14700
C189        C  0.71141600  0.78788286  0.86035946     0.86400
C190        C  0.71234226  0.81574861  0.86334438    -0.53800
C191        C  0.70000999  0.82397707  0.87820519     0.09400
C192        C  0.68656282  0.80389828  0.88836697     0.20300
C193        C  0.71953225  0.77678151  0.87817244    -0.54500
C194        C  0.70660972  0.78524421  0.89285790     0.09500
C195        C  0.68368173  0.78293280  0.85970615    -0.54000
C196        C  0.67042167  0.79112042  0.87420269     0.10000
H197        H  0.72042325  0.82833319  0.85395300     0.14600
H198        H  0.67643938  0.81121993  0.90018840     0.00300
H199        H  0.73388173  0.76312631  0.87900817     0.14900
H200        H  0.67504927  0.77386148  0.84843746     0.14700
O201        O  0.36970733  0.98922789  0.94933017    -0.57900
C202        C  0.39787735  0.99519262  0.89380096     0.74800
O203        O  0.37259974  0.05893310  0.92474208    -0.59000
C204        C  0.38273503  0.99472240  0.96273271     0.74700
C205        C  0.43538949  0.04549505  0.93141783     0.77100
Cd206      Cd  0.39033477  0.01891129  0.92847377     1.37500
O207        O  0.40660959  0.98701583  0.90817521    -0.57900
O208        O  0.43468004  0.02287653  0.92779707    -0.56700
C209        C  0.35057849  0.05224180  0.92615465     0.77100
O210        O  0.41492492  0.05581145  0.93401577    -0.59000
O211        O  0.38359409  0.01322770  0.89544386    -0.57500
O212        O  0.39932267  0.01018342  0.95996429    -0.57500
O213        O  0.34676438  0.02971600  0.92842227    -0.56600
O214        O  0.66270886  0.04711621  0.95842970    -0.57900
C215        C  0.65632159  0.05294400  0.90171678     0.74800
O216        O  0.62184197  0.10724916  0.92834298    -0.59000
C217        C  0.66443524  0.06225863  0.97139583     0.74700
C218        C  0.69783847  0.11156825  0.93228013     0.77100
Cd219      Cd  0.65671602  0.07966832  0.93543864     1.37500
O220        O  0.65599460  0.04155513  0.91641183    -0.57900
O221        O  0.69972887  0.08877116  0.92959115    -0.56700
C222        C  0.60652243  0.09499936  0.93724917     0.77100
O223        O  0.67680126  0.11969035  0.93648013    -0.59000
O224        O  0.65738762  0.07591016  0.90283171    -0.57500
O225        O  0.66395705  0.08456535  0.96728752    -0.57500
O226        O  0.61467242  0.07676895  0.94544771    -0.56600
O227        O  0.35874202  0.98224730  0.10699132    -0.57900
C228        C  0.37228374  0.98823017  0.16334041     0.74800
O229        O  0.39726422  0.04695196  0.13886190    -0.59000
C230        C  0.36200841  0.99656469  0.09395335     0.74700
C231        C  0.32911010  0.04832532  0.13172132     0.77100
Cd232      Cd  0.36879054  0.01456503  0.13021720     1.37500
O233        O  0.38202727  0.98003035  0.14901814    -0.57900
O234        O  0.32512354  0.02569113  0.13345405    -0.56700
C235        C  0.41597490  0.03712681  0.13178836     0.77100
O236        O  0.35109086  0.05481718  0.12958196    -0.59000
O237        O  0.35879151  0.00683663  0.16187864    -0.57500
O238        O  0.36851317  0.01800695  0.09788913    -0.57500
O239        O  0.41275215  0.01669987  0.12409404    -0.56600
O240        O  0.65684853  0.04290551  0.11717210    -0.57900
C241        C  0.63620350  0.04399375  0.17445617     0.74800
O242        O  0.65776737  0.11170745  0.14482780    -0.59000
C243        C  0.65028226  0.05689817  0.10463963     0.74700
C244        C  0.58950093  0.08277299  0.13981240     0.77100
Cd245      Cd  0.64013099  0.07097476  0.14161541     1.37500
O246        O  0.63712890  0.03318612  0.15931251    -0.57900
O247        O  0.59802169  0.06189327  0.13595524    -0.56700
C248        C  0.67955056  0.10409110  0.14641017     0.77100
O249        O  0.60461072  0.09919581  0.14426412    -0.59000
O250        O  0.63886131  0.06687647  0.17444948    -0.57500
O251        O  0.63960561  0.07642692  0.10944420    -0.57500
O252        O  0.68252440  0.08120601  0.14647637    -0.56600
C253        C  0.62964412  0.02743381  0.35615720     0.86400
C254        C  0.60291914  0.02546830  0.36275604    -0.53800
C255        C  0.60024196  0.01466007  0.37898114     0.09400
C256        C  0.62434378  0.00648549  0.38735124     0.20300
C257        C  0.64286171  0.04060601  0.37164879    -0.54500
C258        C  0.64005331  0.02958245  0.38792724     0.09500
C259        C  0.63874551  0.00073354  0.35677346    -0.54000
C260        C  0.63692336  0.98992425  0.37318282     0.10000
H261        H  0.58696455  0.03037886  0.35514032     0.14600
H262        H  0.62191409  0.99792746  0.40062894     0.00300
H263        H  0.65401518  0.05672573  0.36977204     0.14900
H264        H  0.64578294  0.99117933  0.34498192     0.14700
C265        C  0.70567958  0.78004133  0.35864238     0.86400
C266        C  0.70304108  0.80791039  0.36207692    -0.53800
C267        C  0.68954400  0.81405706  0.37695583     0.09400
C268        C  0.67954766  0.79200448  0.38707181     0.20300
C269        C  0.71585914  0.77023095  0.37617580    -0.54500
C270        C  0.70224047  0.77636836  0.39104942     0.09500
C271        C  0.67893895  0.77149358  0.35803554    -0.54000
C272        C  0.66533266  0.77776049  0.37278091     0.10000
H273        H  0.70955303  0.82178140  0.35299938     0.14600
H274        H  0.66847543  0.79721352  0.39909054     0.00300
H275        H  0.73302022  0.76027605  0.37682887     0.14900
H276        H  0.67094510  0.76230251  0.34655508     0.14700
C277        C  0.45648961  0.71721838  0.34590210     0.86400
C278        C  0.48406548  0.72120560  0.34895864    -0.53800
C279        C  0.48936894  0.73369048  0.36436623     0.09400
C280        C  0.46680402  0.74239333  0.37493716     0.20300
C281        C  0.44679061  0.70584243  0.36337444    -0.54500
C282        C  0.45232391  0.71906702  0.37856471     0.09500
C283        C  0.44636582  0.74352097  0.34626245    -0.54000
C284        C  0.45144875  0.75642821  0.36142119     0.10000
H285        H  0.49835665  0.71635418  0.33947140     0.14600
H286        H  0.47115227  0.75330752  0.38714050     0.00300
H287        H  0.43580580  0.68939768  0.36359050     0.14900
H288        H  0.43639548  0.75159437  0.33528410     0.14700
C289        C  0.39476311  0.96992240  0.34139731     0.86400
C290        C  0.39765040  0.94218401  0.34351392    -0.53800
C291        C  0.40766953  0.93501150  0.35933338     0.09400
C292        C  0.41298772  0.95662313  0.37213695     0.20300
C293        C  0.37908456  0.97755760  0.35794182    -0.54500
C294        C  0.38883507  0.97076624  0.37396854     0.09500
C295        C  0.42010494  0.98064977  0.34546356    -0.54000
C296        C  0.42977122  0.97347429  0.36137255     0.10000
H297        H  0.39272507  0.92929499  0.33299281     0.14600
H298        H  0.42038780  0.95106430  0.38525536     0.00300
H299        H  0.36185473  0.98722998  0.35751472     0.14900
H300        H  0.42957305  0.99287290  0.33644332     0.14700
C301        C  0.62697152  0.02292934  0.22333064     0.86400
C302        C  0.63962907  0.99864579  0.21866106    -0.53800
C303        C  0.63455408  0.98958551  0.20211392     0.09400
C304        C  0.61782632  0.00588446  0.19107549     0.20300
C305        C  0.63552172  0.03995838  0.20809743    -0.54500
C306        C  0.63088897  0.03077178  0.19117251     0.09500
C307        C  0.59978201  0.01925553  0.21937382    -0.54000
C308        C  0.59464907  0.01003293  0.20273852     0.10000
H309        H  0.65145792  0.98909135  0.22788387     0.14600
H310        H  0.61425220  0.99808352  0.17757045     0.00300
H311        H  0.64430479  0.05742971  0.21015476     0.14900
H312        H  0.58564636  0.02356040  0.22925020     0.14700
C313        C  0.70555953  0.78962767  0.23129547     0.86400
C314        C  0.67787212  0.78534806  0.22995695    -0.53800
C315        C  0.66778506  0.79186372  0.21412009     0.09400
C316        C  0.68646970  0.80196467  0.20066578     0.20300
C317        C  0.71611886  0.77517413  0.21500531    -0.54500
C318        C  0.70609261  0.78182595  0.19897605     0.09500
C319        C  0.70971658  0.81633620  0.22621830    -0.54000
C320        C  0.69922967  0.82310597  0.21053470     0.10000
H321        H  0.66713326  0.77736472  0.24069131     0.14600
H322        H  0.67797478  0.80703577  0.18779016     0.00300
H323        H  0.72969746  0.76081934  0.21571682     0.14900
H324        H  0.71904714  0.82925710  0.23493311     0.14700
C325        C  0.45270212  0.73511234  0.21809745     0.86400
C326        C  0.44124473  0.76009632  0.21364678    -0.53800
C327        C  0.45026830  0.77056069  0.19846387     0.09400
C328        C  0.46981468  0.75498058  0.18876446     0.20300
C329        C  0.44778907  0.72010065  0.20088223    -0.54500
C330        C  0.45689638  0.73042098  0.18556157     0.09500
C331        C  0.48025452  0.73955429  0.21810867    -0.54000
C332        C  0.48937602  0.74996195  0.20302763     0.10000
H333        H  0.42624779  0.76841452  0.22114773     0.14600
H334        H  0.47707032  0.76337059  0.17636275     0.00300
H335        H  0.43724622  0.70339213  0.20064144     0.14900
H336        H  0.49165921  0.73535450  0.22952010     0.14700
C337        C  0.37849054  0.97575948  0.21364327     0.86400
C338        C  0.40625403  0.98050787  0.21172307    -0.53800
C339        C  0.41655711  0.97210122  0.19614729     0.09400
C340        C  0.39838914  0.95901758  0.18379968     0.20300
C341        C  0.36738874  0.98647272  0.19665182    -0.54500
C342        C  0.37771593  0.97775278  0.18101903     0.09500
C343        C  0.37684099  0.94789913  0.21109322    -0.54000
C344        C  0.38700265  0.93897218  0.19548935     0.10000
H345        H  0.41725618  0.98947427  0.22186875     0.14600
H346        H  0.40728621  0.95235495  0.17124411     0.00300
H347        H  0.35328743  0.00045704  0.19702932     0.14900
H348        H  0.36978558  0.93595127  0.22133075     0.14700
O349        O  0.40069714  0.99531882  0.60513912    -0.57900
C350        C  0.39440030  0.98871087  0.66342380     0.74800
O351        O  0.33007540  0.00651962  0.63300320    -0.59000
C352        C  0.38462786  0.99664097  0.59300589     0.74700
C353        C  0.35894955  0.93579696  0.62901328     0.77100
Cd354      Cd  0.37001315  0.98715169  0.62952715     1.37500
O355        O  0.40672286  0.98707618  0.64896122    -0.57900
O356        O  0.37984381  0.94459078  0.62606298    -0.56700
C357        C  0.33838756  0.02812388  0.63300182     0.77100
O358        O  0.34195208  0.95115471  0.63203187    -0.59000
O359        O  0.37158467  0.99149194  0.66195757    -0.57500
O360        O  0.36269851  0.99333460  0.59782215    -0.57500
O361        O  0.36138327  0.03051278  0.63179215    -0.56600
O362        O  0.43515963  0.69522155  0.61087464    -0.57900
C363        C  0.44223985  0.72527670  0.66636676     0.74800
O364        O  0.38736821  0.74859365  0.65094185    -0.59000
C365        C  0.43606529  0.71314043  0.60033381     0.74700
C366        C  0.37933141  0.67637245  0.63546874     0.77100
Cd367      Cd  0.41205945  0.71707817  0.63527146     1.37500
O368        O  0.44862720  0.73219360  0.65090059    -0.57900
O369        O  0.40201208  0.67303304  0.63757146    -0.56700
C370        C  0.38116067  0.75996362  0.63709668     0.77100
O371        O  0.37248200  0.69819144  0.63347465    -0.59000
O372        O  0.42313567  0.71249197  0.66723773    -0.57500
O373        O  0.42786103  0.73309111  0.60665148    -0.57500
O374        O  0.38866624  0.75092408  0.62234109    -0.56600
O375        O  0.38107947  0.99592712  0.44746350    -0.57900
C376        C  0.37667242  0.97563390  0.39141699     0.74800
O377        O  0.32366825  0.94439927  0.41975156    -0.59000
C378        C  0.36833679  0.98976207  0.46098403     0.77900
C379        C  0.31644483  0.01965376  0.42048538     0.77100
Cd380      Cd  0.35055572  0.98036506  0.42509259     1.37500
O381        O  0.38791587  0.97442190  0.40617074    -0.57900
O382        O  0.33928701  0.02260981  0.41869776    -0.56700
C383        C  0.33891140  0.92974155  0.42647590     0.77100
O384        O  0.30934749  0.99866609  0.42518287    -0.59000
O385        O  0.35415993  0.98063383  0.39234963    -0.57500
O386        O  0.34783970  0.98019514  0.45766395    -0.57500
O387        O  0.35828582  0.93871667  0.43273520    -0.56600
O388        O  0.44726591  0.70212311  0.45405380    -0.57900
C389        C  0.44243434  0.71394149  0.39659500     0.74800
O390        O  0.37727855  0.69358643  0.42254367    -0.59000
C391        C  0.43217574  0.70545220  0.46688138     0.74700
C392        C  0.39125441  0.75787828  0.42856530     0.77100
Cd393      Cd  0.41594038  0.71132394  0.43006265     1.37500
O394        O  0.44825934  0.72680605  0.41011554    -0.57900
O395        O  0.41429762  0.75606130  0.42756757    -0.56700
C396        C  0.38399928  0.67152276  0.42346241     0.77100
O397        O  0.37988480  0.73811557  0.43070392    -0.59000
O398        O  0.42653216  0.69770184  0.39915079    -0.57500
O399        O  0.41078127  0.71124075  0.46239668    -0.57500
O400        O  0.40612205  0.66757475  0.42750745    -0.56600
O401        O  0.89644985  0.25242861  0.94129263    -0.57900
C402        C  0.90091288  0.26857033  0.88426601     0.74800
O403        O  0.82929466  0.25164939  0.91328322    -0.59000
C404        C  0.88339953  0.26201320  0.95367746     0.74700
C405        C  0.85293658  0.31749568  0.91400669     0.77100
Cd406      Cd  0.87024554  0.26823518  0.91624594     1.37500
O407        O  0.90863875  0.27570686  0.89939496    -0.57900
O408        O  0.87353690  0.31183754  0.92034013    -0.56700
C409        C  0.83554712  0.22959090  0.91529215     0.77100
O410        O  0.83961538  0.29991596  0.90893928    -0.59000
O411        O  0.87982301  0.25929392  0.88411122    -0.57500
O412        O  0.86584871  0.27512785  0.94850576    -0.57500
O413        O  0.85821725  0.22526800  0.91655250    -0.56600
O414        O  0.92275259  0.52242779  0.88271396    -0.57900
C415        C  0.91364647  0.54094158  0.93367682     0.74800
O416        O  0.84837684  0.55237378  0.91111974    -0.59000
C417        C  0.91555223  0.53115876  0.86805886     0.74700
C418        C  0.85679295  0.49190700  0.89942023     0.77100
Cd419      Cd  0.88673745  0.53482273  0.90061588     1.37500
O420        O  0.91014310  0.52001157  0.92675880    -0.57900
O421        O  0.86973698  0.49759850  0.91277058    -0.56700
C422        C  0.85405618  0.57418992  0.90781490     0.77100
O423        O  0.85737092  0.50626967  0.88630295    -0.59000
O424        O  0.90732485  0.55876657  0.92420199    -0.57500
O425        O  0.89581973  0.54322503  0.86863917    -0.57500
O426        O  0.87389424  0.57758764  0.89934800    -0.56600
O427        O  0.88642939  0.26428175  0.13956795    -0.57900
C428        C  0.86670693  0.24688383  0.08630236     0.74800
O429        O  0.80697018  0.24713324  0.12431275    -0.59000
C430        C  0.87624797  0.26289853  0.15483021     0.74700
C431        C  0.83658878  0.31110542  0.11610314     0.77100
Cd432      Cd  0.84882336  0.26075949  0.12171932     1.37500
O433        O  0.88109444  0.24771750  0.09953757    -0.57900
O434        O  0.85562127  0.30105253  0.10981237    -0.56700
C435        C  0.81239476  0.22525855  0.12787805     0.77100
O436        O  0.82248938  0.29792085  0.12533149    -0.59000
O437        O  0.84428611  0.25010375  0.08990022    -0.57500
O438        O  0.85348652  0.25933310  0.15491273    -0.57500
O439        O  0.83489165  0.21970636  0.12830846    -0.56600
O440        O  0.92753361  0.54030085  0.07905577    -0.57900
C441        C  0.92180245  0.52345373  0.13774143     0.74800
O442        O  0.86024604  0.55440884  0.11049649    -0.59000
C443        C  0.91243273  0.53566348  0.06661757     0.74700
C444        C  0.87514222  0.48394088  0.10171320     0.77100
Cd445      Cd  0.89704938  0.53116244  0.10398194     1.37500
O446        O  0.93269031  0.52036866  0.12276195    -0.57900
O447        O  0.89800320  0.48707780  0.10194816    -0.56700
C448        C  0.87059175  0.57501169  0.11159021     0.77100
O449        O  0.86203556  0.50303256  0.10282777    -0.59000
O450        O  0.90020181  0.53155232  0.13716617    -0.57500
O451        O  0.89101350  0.53043449  0.07164655    -0.57500
O452        O  0.89343809  0.57545896  0.10861187    -0.56600
O453        O  0.20524516  0.50642303  0.59454399    -0.57900
C454        C  0.18245142  0.51764329  0.64985973     0.74800
O455        O  0.21843491  0.57559607  0.62280213    -0.59000
C456        C  0.20100066  0.51918325  0.58084237     0.74700
C457        C  0.14682512  0.56270772  0.61057062     0.77100
Cd458      Cd  0.19341021  0.54005699  0.61619043     1.37500
O459        O  0.18102552  0.50581476  0.63517797    -0.57900
O460        O  0.14980429  0.53992414  0.61199995    -0.56700
C461        C  0.23821651  0.56372748  0.62436445     0.77100
O462        O  0.16581293  0.57572127  0.61215927    -0.59000
O463        O  0.18985824  0.53937445  0.64900169    -0.57500
O464        O  0.19453691  0.54105774  0.58366170    -0.57500
O465        O  0.23743748  0.54099640  0.62121617    -0.56600
O466        O  0.90280022  0.53828973  0.58358899    -0.57900
C467        C  0.91721913  0.53914172  0.63847883     0.74800
O468        O  0.95310039  0.59385453  0.61526978    -0.59000
C469        C  0.90315963  0.55329563  0.57078175     0.74700
C470        C  0.88360303  0.60702592  0.61379741     0.77100
Cd471      Cd  0.91759441  0.56849479  0.60661395     1.37500
O472        O  0.92655611  0.53113020  0.62395649    -0.57900
O473        O  0.87651723  0.58513060  0.61206239    -0.56700
C474        C  0.96818211  0.58309945  0.60494151     0.77100
O475        O  0.90630148  0.61076631  0.61197024    -0.59000
O476        O  0.90622734  0.55934298  0.63773506    -0.57500
O477        O  0.90971151  0.57474920  0.57476885    -0.57500
O478        O  0.95992085  0.56583951  0.59541520    -0.56600
O479        O  0.20167685  0.50252604  0.43680459    -0.57900
C480        C  0.18939630  0.51229127  0.38079537     0.74800
O481        O  0.16757485  0.57248537  0.41310317    -0.59000
C482        C  0.20623665  0.51691081  0.44982803     0.74700
C483        C  0.24021161  0.56244844  0.41275497     0.77100
Cd484      Cd  0.19547424  0.53665671  0.41507128     1.37500
O485        O  0.18185682  0.50266999  0.39515048    -0.57900
O486        O  0.23998087  0.53932749  0.41255788    -0.56700
C487        C  0.14943873  0.56175312  0.42004120     0.77100
O488        O  0.21970959  0.57330414  0.41272593    -0.59000
O489        O  0.20070345  0.53220292  0.38245632    -0.57500
O490        O  0.20529305  0.53943627  0.44659712    -0.57500
O491        O  0.15288660  0.53990625  0.42457525    -0.56600
O492        O  0.92761815  0.52624037  0.38398197    -0.57900
C493        C  0.91413569  0.53938117  0.43952986     0.74800
O494        O  0.95549034  0.59139241  0.40919069    -0.59000
C495        C  0.92400017  0.53775561  0.36964356     0.74700
C496        C  0.88513018  0.59847758  0.40775622     0.77100
Cd497      Cd  0.92213323  0.56141180  0.40474307     1.37500
O498        O  0.90088411  0.53318776  0.42637987    -0.57900
O499        O  0.87981924  0.57602076  0.40734395    -0.56700
C500        C  0.97242935  0.57571775  0.40725182     0.77100
O501        O  0.90736907  0.60381226  0.40505449    -0.59000
O502        O  0.93110506  0.55417541  0.43615275    -0.57500
O503        O  0.91713126  0.55971475  0.37145608    -0.57500
O504        O  0.96601106  0.55409801  0.40359811    -0.56600
C505        C  0.92278911  0.27175771  0.70657061     0.86400
C506        C  0.91617555  0.29875672  0.70318869    -0.53800
C507        C  0.92535574  0.30767062  0.68754158     0.09400
C508        C  0.94059587  0.28915850  0.67660593     0.20300
C509        C  0.91418559  0.25815553  0.68957286    -0.54500
C510        C  0.92337480  0.26740173  0.67392306     0.09500
C511        C  0.95089587  0.27165687  0.70530596    -0.54000
C512        C  0.96015969  0.28018831  0.68963826     0.10000
H513        H  0.90626221  0.31067443  0.71237176     0.14600
H514        H  0.94839612  0.29656312  0.66401543     0.00300
H515        H  0.90184140  0.24270946  0.68993258     0.14900
H516        H  0.96261819  0.26497054  0.71585336     0.14700
C517        C  0.18149752  0.25216621  0.70254688     0.86400
C518        C  0.15342003  0.25348608  0.70167989    -0.53800
C519        C  0.14398999  0.26170254  0.68592998     0.09400
C520        C  0.16411781  0.26795618  0.67216662     0.20300
C521        C  0.18930407  0.23657470  0.68608140    -0.54500
C522        C  0.18006389  0.24478589  0.67020678     0.09500
C523        C  0.19028082  0.27778036  0.69730660    -0.54000
C524        C  0.18030854  0.28646821  0.68204772     0.10000
H525        H  0.14196674  0.24897048  0.71311592     0.14600
H526        H  0.15722866  0.27430522  0.65912690     0.00300
H527        H  0.20163386  0.22110658  0.68655905     0.14900
H528        H  0.20225246  0.28904025  0.70543749     0.14700
C529        C  0.17004615  0.50192034  0.69938309     0.86400
C530        C  0.17797794  0.47529676  0.69590206    -0.53800
C531        C  0.17202929  0.46630401  0.67937153     0.09400
C532        C  0.15845035  0.48445197  0.66770939     0.20300
C533        C  0.18084906  0.51636022  0.68353935    -0.54500
C534        C  0.17502936  0.50684801  0.66701172     0.09500
C535        C  0.14230860  0.50201554  0.69539938    -0.54000
C536        C  0.13646766  0.49261606  0.67904317     0.10000
H537        H  0.18671296  0.46419954  0.70597645     0.14600
H538        H  0.15333977  0.47700274  0.65434033     0.00300
H539        H  0.19181054  0.53267325  0.68522155     0.14900
H540        H  0.12810277  0.50996520  0.70373207     0.14700
C541        C  0.92363948  0.52393098  0.68823091     0.86400
C542        C  0.95162914  0.52451379  0.68505430    -0.53800
C543        C  0.95931917  0.51549140  0.66878439     0.09400
C544        C  0.93836948  0.50507636  0.65749711     0.20300
C545        C  0.91285536  0.53645721  0.67176982    -0.54500
C546        C  0.92067607  0.52668008  0.65568463     0.09500
C547        C  0.91797285  0.49672981  0.68585717    -0.54000
C548        C  0.92528059  0.48697050  0.66983344     0.10000
H549        H  0.96454262  0.53033844  0.69515379     0.14600
H550        H  0.94431475  0.49696333  0.64446093     0.00300
H551        H  0.90137395  0.55261840  0.67280624     0.14900
H552        H  0.91063854  0.48542570  0.69642986     0.14700
C553        C  0.18499351  0.49891037  0.83009655     0.86400
C554        C  0.15860790  0.50752484  0.83384730    -0.53800
C555        C  0.14911384  0.50085363  0.85006045     0.09400
C556        C  0.16684164  0.48543837  0.86110129     0.20300
C557        C  0.19984058  0.50758095  0.84634239    -0.54500
C558        C  0.19031673  0.50070141  0.86254897     0.09500
C559        C  0.18316698  0.47100410  0.83246869    -0.54000
C560        C  0.17361603  0.46398573  0.84850152     0.10000
H561        H  0.14778710  0.51721302  0.82408921     0.14600
H562        H  0.15938595  0.47978609  0.87427464     0.00300
H563        H  0.21686547  0.51754756  0.84506301     0.14900
H564        H  0.18779898  0.45747244  0.82229840     0.14700
C565        C  0.93637014  0.52300716  0.81876308     0.86400
C566        C  0.93572064  0.49532443  0.82181487    -0.53800
C567        C  0.94384191  0.48804023  0.83813974     0.09400
C568        C  0.95156119  0.50949148  0.85030710     0.20300
C569        C  0.92091698  0.53349689  0.83459821    -0.54500
C570        C  0.92894999  0.52626387  0.85110157     0.09500
C571        C  0.96246080  0.53097456  0.82314682    -0.54000
C572        C  0.97067122  0.52359149  0.83936015     0.10000
H573        H  0.92927902  0.48248188  0.81171315     0.14600
H574        H  0.95796131  0.50374568  0.86366584     0.00300
H575        H  0.90467122  0.54461309  0.83324357     0.14900
H576        H  0.97409961  0.54049287  0.81367363     0.14700
C577        C  0.92855920  0.26784685  0.83619996     0.86400
C578        C  0.95320275  0.26003715  0.84400532    -0.53800
C579        C  0.95855057  0.27069488  0.86012108     0.09400
C580        C  0.93851928  0.28782402  0.86737118     0.20300
C581        C  0.90996159  0.26149188  0.85129087    -0.54500
C582        C  0.91552218  0.27182146  0.86767041     0.09500
C583        C  0.92889631  0.29584570  0.83635121    -0.54000
C584        C  0.93434296  0.30628074  0.85241545     0.10000
H585        H  0.96594176  0.24807211  0.83688005     0.14600
H586        H  0.94299606  0.29653587  0.88045625     0.00300
H587        H  0.89421410  0.24983283  0.84962247     0.14900
H588        H  0.92573767  0.30663141  0.82447544     0.14700
C589        C  0.16800465  0.24567607  0.83395823     0.86400
C590        C  0.17443888  0.27299596  0.83607218    -0.53800
C591        C  0.16797125  0.28310648  0.85226996     0.09400
C592        C  0.15515632  0.26534134  0.86479123     0.20300
C593        C  0.17960854  0.23333653  0.85031621    -0.54500
C594        C  0.17261868  0.24368464  0.86638712     0.09500
C595        C  0.14012840  0.24526654  0.83801428    -0.54000
C596        C  0.13375460  0.25581092  0.85401431     0.10000
H597        H  0.18231182  0.28368245  0.82532731     0.14600
H598        H  0.14966383  0.27387543  0.87781807     0.00300
H599        H  0.19240352  0.21819154  0.84925570     0.14900
H600        H  0.12602862  0.23889487  0.82909622     0.14700
O601        O  0.20089479  0.24363480  0.94997901    -0.57900
C602        C  0.18238979  0.23718982  0.88394214     0.74800
O603        O  0.23990560  0.26096568  0.91586576    -0.59000
C604        C  0.18137416  0.23220934  0.95320606     0.74700
C605        C  0.23299642  0.19108500  0.92123932     0.77100
Cd606      Cd  0.20433868  0.23383635  0.91839856     1.37500
O607        O  0.17123447  0.24341556  0.89822701    -0.57900
O608        O  0.20996223  0.18991697  0.92000548    -0.56700
C609        C  0.22750343  0.28032803  0.91809352     0.77100
O610        O  0.24253244  0.21203653  0.92037727    -0.59000
O611        O  0.20290580  0.22689442  0.88560639    -0.57500
O612        O  0.17127787  0.22195329  0.93986712    -0.57500
O613        O  0.20474967  0.27773040  0.92052383    -0.56600
O614        O  0.20511321  0.52320948  0.93669060    -0.57900
C615        C  0.20311851  0.50462211  0.87971028     0.74800
O616        O  0.27218893  0.52050468  0.90616587    -0.59000
C617        C  0.21284071  0.50916243  0.94877322     0.74700
C618        C  0.24957776  0.45574859  0.90946805     0.77100
Cd619      Cd  0.23127319  0.50459450  0.91222469     1.37500
O620        O  0.19325859  0.49969739  0.89466888    -0.57900
O621        O  0.22893271  0.46181218  0.90346679    -0.56700
C622        C  0.26725870  0.54241343  0.91039293     0.77100
O623        O  0.26214888  0.47241738  0.91677810    -0.59000
O624        O  0.22502226  0.51184629  0.88012332    -0.57500
O625        O  0.22692574  0.49214207  0.94357020    -0.57500
O626        O  0.24542564  0.54700544  0.91508910    -0.56600
O627        O  0.19548829  0.22292128  0.08959572    -0.57900
C628        C  0.16490092  0.24291415  0.15437793     0.74800
O629        O  0.22711183  0.21178005  0.12508560    -0.59000
C630        C  0.17332399  0.22299367  0.08508383     0.74700
C631        C  0.21418907  0.28084234  0.11621089     0.77100
Cd632      Cd  0.19008017  0.23472114  0.12075632     1.37500
O633        O  0.15482776  0.24765944  0.13958490    -0.57900
O634        O  0.19157788  0.27805623  0.11356339    -0.56700
C635        C  0.21669242  0.19165825  0.12818886     0.77100
O636        O  0.22562464  0.26208333  0.12116572    -0.59000
O637        O  0.18578911  0.23313371  0.15354711    -0.57500
O638        O  0.15784648  0.22783746  0.09741622    -0.57500
O639        O  0.19352252  0.19144824  0.12748429    -0.56600
O640        O  0.20704295  0.51630464  0.09510215    -0.57900
C641        C  0.20891896  0.50552572  0.15116784     0.74800
O642        O  0.23738657  0.46446578  0.10575309    -0.59000
C643        C  0.22273722  0.51689297  0.08245916     0.74700
C644        C  0.27533212  0.54132626  0.12243891     0.77100
Cd645      Cd  0.23830998  0.50554270  0.11859872     1.37500
O646        O  0.20002183  0.50037812  0.13596103    -0.57900
O647        O  0.25290810  0.54721963  0.12302779    -0.56700
C648        C  0.25286621  0.45523032  0.11611344     0.77100
O649        O  0.28037767  0.51893838  0.12010345    -0.59000
O650        O  0.23087387  0.51248078  0.15124538    -0.57500
O651        O  0.24463345  0.51345859  0.08706740    -0.57500
O652        O  0.26220965  0.46933472  0.12767147    -0.56600
C653        C  0.93159893  0.52169060  0.31920518     0.86400
C654        C  0.92451478  0.49475132  0.32259570    -0.53800
C655        C  0.93266003  0.48562840  0.33839938     0.09400
C656        C  0.94633804  0.50426100  0.34986703     0.20300
C657        C  0.92153299  0.53564506  0.33582695    -0.54500
C658        C  0.92920402  0.52643302  0.35185554     0.09500
C659        C  0.95963848  0.52125381  0.32157807    -0.54000
C660        C  0.96720445  0.51256545  0.33766795     0.10000
H661        H  0.91546270  0.48298553  0.31300169     0.14600
H662        H  0.95294153  0.49695925  0.36277349     0.00300
H663        H  0.90969482  0.55150880  0.33496339     0.14900
H664        H  0.97254018  0.52597417  0.31106585     0.14700
C665        C  0.18667307  0.49671592  0.33039426     0.86400
C666        C  0.15856265  0.49858873  0.33102339    -0.53800
C667        C  0.14793236  0.49036455  0.34635105     0.09400
C668        C  0.16640815  0.48050856  0.35990665     0.20300
C669        C  0.19512346  0.50988588  0.34752709    -0.54500
C670        C  0.18465689  0.50138669  0.36295656     0.09500
C671        C  0.19098612  0.46926530  0.33369605    -0.54000
C672        C  0.18082660  0.46101263  0.34928435     0.10000
H673        H  0.14768014  0.50517228  0.31997559     0.14600
H674        H  0.15772244  0.47347578  0.37230492     0.00300
H675        H  0.20807110  0.52484437  0.34738312     0.14900
H676        H  0.19965212  0.45685727  0.32416135     0.14700
C677        C  0.90499268  0.26911070  0.33534987     0.86400
C678        C  0.93215700  0.26225643  0.33846943    -0.53800
C679        C  0.94158821  0.27036048  0.35441410     0.09400
C680        C  0.92340576  0.28627311  0.36525145     0.20300
C681        C  0.89156849  0.26061530  0.35249068    -0.54500
C682        C  0.90136181  0.26960600  0.36814686     0.09500
C683        C  0.90548753  0.29705695  0.33675401    -0.54000
C684        C  0.91504805  0.30598810  0.35222804     0.10000
H685        H  0.94377334  0.25365604  0.32843934     0.14600
H686        H  0.93064141  0.29387714  0.37795932     0.00300
H687        H  0.87667217  0.24760138  0.35223607     0.14900
H688        H  0.89999879  0.30893735  0.32595958     0.14700
C689        C  0.15790016  0.25303703  0.33605445     0.86400
C690        C  0.16884647  0.27684557  0.34341075    -0.53800
C691        C  0.16052242  0.28396778  0.35999456     0.09400
C692        C  0.14312504  0.26528838  0.36845369     0.20300
C693        C  0.16469148  0.23412262  0.35053285    -0.54500
C694        C  0.15710975  0.24089379  0.36754702     0.09500
C695        C  0.13012616  0.25579856  0.33816734    -0.54000
C696        C  0.12234768  0.26217221  0.35492206     0.10000
H697        H  0.18127826  0.28792221  0.33556530     0.14600
H698        H  0.13672409  0.27026837  0.38216877     0.00300
H699        H  0.17461903  0.21729346  0.34795393     0.14900
H700        H  0.11750810  0.25255944  0.32722998     0.14700
C701        C  0.89833108  0.27284176  0.20355357     0.86400
C702        C  0.90018750  0.30006817  0.19889310    -0.53800
C703        C  0.90844738  0.30449533  0.18194301     0.09400
C704        C  0.91416112  0.28133284  0.17100535     0.20300
C705        C  0.88158450  0.26243759  0.18857891    -0.54500
C706        C  0.89012286  0.26705069  0.17150398     0.09500
C707        C  0.92350439  0.26190394  0.19904538    -0.54000
C708        C  0.93219391  0.26696322  0.18236485     0.10000
H709        H  0.89592479  0.31459949  0.20845212     0.14600
H710        H  0.92100484  0.28517549  0.15728515     0.00300
H711        H  0.86425179  0.25349876  0.19092167     0.14900
H712        H  0.93462243  0.25274984  0.20893231     0.14700
C713        C  0.14647004  0.25099580  0.20409363     0.86400
C714        C  0.11898605  0.24887227  0.19933373    -0.53800
C715        C  0.11276688  0.25890298  0.18327831     0.09400
C716        C  0.13447853  0.27014686  0.17334586     0.20300
C717        C  0.15978514  0.23953500  0.18773134    -0.54500
C718        C  0.15343522  0.24958694  0.17170969     0.09500
C719        C  0.15135274  0.27850594  0.20277792    -0.54000
C720        C  0.14516921  0.28852942  0.18683979     0.10000
H721        H  0.10499690  0.24110938  0.20778898     0.14600
H722        H  0.12979649  0.27815764  0.16024062     0.00300
H723        H  0.17323734  0.22502555  0.18877383     0.14900
H724        H  0.15906582  0.28924928  0.21366314     0.14700
C725        C  0.18402449  0.50234605  0.19995880     0.86400
C726        C  0.18200762  0.47456989  0.19748516    -0.53800
C727        C  0.17494431  0.46711574  0.18088613     0.09400
C728        C  0.17054917  0.48802691  0.16789628     0.20300
C729        C  0.20200438  0.50982998  0.18473584    -0.54500
C730        C  0.19463031  0.50233193  0.16790153     0.09500
C731        C  0.15944685  0.51284255  0.19388544    -0.54000
C732        C  0.15216211  0.50489832  0.17742921     0.10000
H733        H  0.18550971  0.46177797  0.20817055     0.14600
H734        H  0.16450545  0.48158948  0.15447646     0.00300
H735        H  0.21887830  0.51970429  0.18674888     0.14900
H736        H  0.14797336  0.52447018  0.20237883     0.14700
C737        C  0.94208336  0.51585740  0.18716428     0.86400
C738        C  0.96856135  0.52076940  0.18122217    -0.53800
C739        C  0.97509295  0.51094221  0.16489246     0.09400
C740        C  0.95397187  0.49784029  0.15547653     0.20300
C741        C  0.92674491  0.52620518  0.17149940    -0.54500
C742        C  0.93340863  0.51688342  0.15490482     0.09500
C743        C  0.93880383  0.48818506  0.18524612    -0.54000
C744        C  0.94514643  0.47874244  0.16891778     0.10000
H745        H  0.98138280  0.53060030  0.18964964     0.14600
H746        H  0.95862653  0.49016610  0.14205474     0.00300
H747        H  0.91229688  0.53964088  0.17300518     0.14900
H748        H  0.93207939  0.47685286  0.19605377     0.14700
O749        O  0.19888371  0.23307178  0.59548118    -0.57900
C750        C  0.18373630  0.23194201  0.65280365     0.74800
O751        O  0.14776605  0.17740551  0.62138709    -0.59000
C752        C  0.19512817  0.21804799  0.58271209     0.74700
C753        C  0.21943505  0.16726432  0.62424719     0.77100
Cd754      Cd  0.18377214  0.20450523  0.61931913     1.37500
O755        O  0.17995406  0.24227602  0.63798684    -0.57900
O756        O  0.22549558  0.18951655  0.62323486    -0.56700
C757        C  0.13238260  0.19444265  0.61954143     0.77100
O758        O  0.19685863  0.16246981  0.62300720    -0.59000
O759        O  0.18967825  0.20966231  0.65197689    -0.57500
O760        O  0.18637142  0.19765656  0.58701781    -0.57500
O761        O  0.14106025  0.21545282  0.61699247    -0.56600
O762        O  0.89419724  0.26830754  0.60058769    -0.57900
C763        C  0.91759088  0.25740381  0.65600715     0.74800
O764        O  0.88587904  0.19814088  0.62065227    -0.59000
C765        C  0.90550477  0.26003271  0.58687786     0.74700
C766        C  0.95368332  0.20867401  0.61853471     0.77100
Cd767      Cd  0.90940929  0.23564503  0.62110530     1.37500
O768        O  0.92432581  0.26785252  0.64177860    -0.57900
O769        O  0.93376179  0.19756791  0.62119624    -0.56700
C770        C  0.86528190  0.20850904  0.62254504     0.77100
O771        O  0.95261707  0.23158400  0.61694532    -0.59000
O772        O  0.90594803  0.23775860  0.65406120    -0.57500
O773        O  0.91845150  0.24125315  0.58922786    -0.57500
O774        O  0.86508187  0.23158982  0.62336705    -0.56600
O775        O  0.15917639  0.23603690  0.39929622    -0.57900
C776        C  0.17436600  0.21802751  0.45191274     0.74800
O777        O  0.12659767  0.17120900  0.42124126    -0.59000
C778        C  0.16070398  0.22628940  0.38385193     0.74700
C779        C  0.19639927  0.15852269  0.41108258     0.77100
Cd780      Cd  0.16250664  0.19832104  0.41656420     1.37500
O781        O  0.18607895  0.22498269  0.43817616    -0.57900
O782        O  0.20337238  0.18052902  0.41169039    -0.56700
C783        C  0.11134534  0.18866310  0.42116050     0.77100
O784        O  0.17366262  0.15512270  0.41296834    -0.59000
O785        O  0.15798542  0.20233401  0.44915610    -0.57500
O786        O  0.16449151  0.20352609  0.38329342    -0.57500
O787        O  0.11981605  0.20950882  0.41776517    -0.56600
O788        O  0.90526448  0.26926552  0.40022802    -0.57900
C789        C  0.88305821  0.26012700  0.45642100     0.74800
O790        O  0.86929671  0.19931033  0.42131870    -0.59000
C791        C  0.89538074  0.26045789  0.38629320     0.74700
C792        C  0.93545130  0.20981739  0.42437146     0.77100
Cd793      Cd  0.89081946  0.23741569  0.42120314     1.37500
O794        O  0.89199418  0.27245167  0.44366537    -0.57900
O795        O  0.93202173  0.22990647  0.43247446    -0.56700
C796        C  0.84820859  0.20857201  0.41954617     0.77100
O797        O  0.91808463  0.20207623  0.41486383    -0.59000
O798        O  0.87681636  0.23862035  0.45240942    -0.57500
O799        O  0.88159760  0.24239583  0.38867789    -0.57500
O800        O  0.84683881  0.23164076  0.41867944    -0.56600
C801        C  0.99545359  0.17884800  0.41248456    -0.11400
C802        C  0.00708196  0.17955026  0.42916960     0.15100
C803        C  0.99346064  0.18645233  0.44460379     0.02000
C804        C  0.96969558  0.19538871  0.44273861    -0.15800
C805        C  0.95881336  0.19666291  0.42583392    -0.10600
C806        C  0.97145608  0.18723170  0.41067420     0.08700
C807        C  0.03414413  0.17947349  0.42927369     0.09800
S808        S  0.00597901  0.18564822  0.46687406    -0.24900
H809        H  0.95985681  0.20198959  0.45449958     0.20000
S810        S  0.95909699  0.18787250  0.38840906    -0.30600
H811        H  0.00580616  0.17388888  0.40054128     0.10300
C812        C  0.04834944  0.16008622  0.42215703     0.03600
C813        C  0.07372930  0.16312142  0.42008067    -0.12900
C814        C  0.08501631  0.18522587  0.42492809    -0.08600
C815        C  0.07082280  0.20399472  0.43307250     0.07000
C816        C  0.04563990  0.20099011  0.43489317    -0.13700
S817        S  0.03419714  0.13161404  0.41575375    -0.30600
H818        H  0.08467340  0.14857412  0.41419635     0.11300
S819        S  0.08424135  0.23203023  0.44131522    -0.27700
H820        H  0.03461382  0.21593193  0.44012479     0.08500
H821        H  0.95040559  0.21201126  0.38989351     0.26900
H822        H  0.05575640  0.11954737  0.41020904     0.21700
H823        H  0.06367261  0.24069023  0.45093050     0.27000
H824        H  0.02396888  0.16795058  0.46288151     0.15900
C825        C  0.91699913  0.27335584  0.53780683    -0.11400
C826        C  0.89343191  0.27975949  0.53214270     0.15100
C827        C  0.87496923  0.28367740  0.54531722     0.02000
C828        C  0.87977377  0.27874140  0.56336530    -0.15800
C829        C  0.90287067  0.27055830  0.56875975    -0.10600
C830        C  0.92203449  0.26941917  0.55591886     0.08700
C831        C  0.88802281  0.27866916  0.51253034     0.09800
S832        S  0.84471191  0.29424039  0.53990645    -0.24900
H833        H  0.86502213  0.28020094  0.57311060     0.20000
S834        S  0.95327155  0.26288421  0.56177957    -0.30600
H835        H  0.93145962  0.27054798  0.52797475     0.10300
C836        C  0.90156426  0.29189686  0.49971254     0.03600
C837        C  0.89845451  0.28684054  0.48129434    -0.12900
C838        C  0.88159202  0.26926693  0.47533508    -0.08600
C839        C  0.86618427  0.25817669  0.48820653     0.07000
C840        C  0.87011817  0.26232757  0.50649493    -0.13700
S841        S  0.92283643  0.31515890  0.50675783    -0.30600
H842        H  0.91000711  0.29580705  0.47156490     0.11300
S843        S  0.84098618  0.23867379  0.48225550    -0.27700
H844        H  0.85928428  0.25235841  0.51615063     0.08500
H845        H  0.95173664  0.27366368  0.57898293     0.26900
H846        H  0.92948483  0.32291574  0.48950257     0.21700
H847        H  0.83510423  0.25151237  0.46665417     0.27000
H848        H  0.85172283  0.30668956  0.52433844     0.15900
C849        C  0.16751557  0.23197935  0.50165774    -0.11400
C850        C  0.19198946  0.23365706  0.50688109     0.15100
C851        C  0.21048193  0.23366618  0.49353427     0.02000
C852        C  0.20422991  0.23011502  0.47546346    -0.15800
C853        C  0.17979652  0.22675532  0.47037697    -0.10600
C854        C  0.16122307  0.22897449  0.48364327     0.08700
C855        C  0.19738625  0.23209373  0.52632053     0.09800
S856        S  0.24234375  0.23727258  0.49881749    -0.24900
H857        H  0.21864362  0.22883682  0.46543458     0.20000
S858        S  0.12912741  0.22810141  0.47849612    -0.30600
H859        H  0.15318135  0.23230353  0.51178836     0.10300
C860        C  0.19070161  0.25080559  0.53859112     0.03600
C861        C  0.19202886  0.24657693  0.55712997    -0.12900
C862        C  0.19960690  0.22384761  0.56360297    -0.08600
C863        C  0.20808145  0.20586301  0.55122401     0.07000
C864        C  0.20668328  0.21009526  0.53280833    -0.13700
S865        S  0.17983875  0.27977153  0.53057979    -0.30600
H866        H  0.18578217  0.26046846  0.56656642     0.11300
S867        S  0.22054134  0.17696414  0.55805397    -0.27700
H868        H  0.21207785  0.19575353  0.52342707     0.08500
H869        H  0.13179918  0.23975038  0.46191355     0.26900
H870        H  0.17416315  0.29005885  0.54748592     0.21700
H871        H  0.23050840  0.18586965  0.57416972     0.27000
H872        H  0.23853108  0.25065573  0.51481424     0.15900
C873        C  0.06835046  0.16728884  0.61715312    -0.11400
C874        C  0.05427275  0.18806657  0.62112955     0.15100
C875        C  0.06589806  0.21014538  0.62578886     0.02000
C876        C  0.09129044  0.21134165  0.62531643    -0.15800
C877        C  0.10564247  0.19084732  0.62075580    -0.10600
C878        C  0.09392011  0.16834576  0.61711882     0.08700
C879        C  0.02773715  0.18737472  0.61828764     0.09800
S880        S  0.04944537  0.23783414  0.63155235    -0.24900
H881        H  0.09990696  0.22862244  0.62849916     0.20000
S882        S  0.11031678  0.14091148  0.61110693    -0.30600
H883        H  0.05935787  0.15037189  0.61351747     0.10300
C884        C  0.01767509  0.19868866  0.60322362     0.03600
C885        C  0.99259255  0.20319218  0.60283545    -0.12900
C886        C  0.97740687  0.19630762  0.61708846    -0.08600
C887        C  0.98710135  0.18245400  0.63118711     0.07000
C888        C  0.01235194  0.17836254  0.63177022    -0.13700
S889        S  0.03705474  0.20921105  0.58519546    -0.30600
H890        H  0.98496456  0.21359063  0.59197336     0.11300
S891        S  0.96872985  0.17222272  0.64973705    -0.27700
H892        H  0.02018150  0.16947484  0.64326987     0.08500
H893        H  0.12232117  0.13996720  0.62768073     0.26900
H894        H  0.01822752  0.21782134  0.57420569     0.21700
H895        H  0.95003336  0.16292035  0.63884497     0.27000
H896        H  0.02817119  0.22663389  0.63805196     0.15900
C897        C  0.09621912  0.51980014  0.14970118    -0.11400
C898        C  0.07768013  0.51174899  0.16126303     0.15100
C899        C  0.08380433  0.50156468  0.17790131     0.02000
C900        C  0.10822547  0.49967102  0.18263695    -0.15800
C901        C  0.12684043  0.50812700  0.17134995    -0.10600
C902        C  0.12081774  0.51825290  0.15465039     0.08700
C903        C  0.05191492  0.51401542  0.15611546     0.09800
S904        S  0.06138512  0.49017397  0.19358098    -0.24900
H905        H  0.11277188  0.49138673  0.19528079     0.20000
S906        S  0.14345390  0.53002805  0.13939813    -0.30600
H907        H  0.09145871  0.52762545  0.13693323     0.10300
C908        C  0.03873842  0.53545782  0.16011650     0.03600
C909        C  0.01321532  0.53452379  0.16090503    -0.12900
C910        C  0.00069239  0.51245843  0.15803984    -0.08600
C911        C  0.01399657  0.49180948  0.15160495     0.07000
C912        C  0.03955103  0.49290062  0.15081926    -0.13700
S913        S  0.05451300  0.56312501  0.16637435    -0.30600
H914        H  0.00304133  0.55060917  0.16510730     0.11300
S915        S  0.99956366  0.46322776  0.14591897    -0.27700
H916        H  0.05011767  0.47668185  0.14754958     0.08500
H917        H  0.15977071  0.53783392  0.15271804     0.26900
H918        H  0.03355300  0.57742413  0.16980900     0.21700
H919        H  0.02071378  0.45035356  0.14051955     0.27000
H920        H  0.04356338  0.50810433  0.19055329     0.15900
C921        C  0.14127790  0.35757747  0.19125905    -0.11400
C922        C  0.15456031  0.36479239  0.17610360     0.15100
C923        C  0.16391231  0.34685610  0.16413648     0.02000
C924        C  0.16040958  0.32213605  0.16781130    -0.15800
C925        C  0.14776252  0.31490918  0.18326415    -0.10600
C926        C  0.13765167  0.33286560  0.19494652     0.08700
C927        C  0.16024600  0.39101703  0.17428339     0.09800
S928        S  0.18075646  0.35438213  0.14417725    -0.24900
H929        H  0.16793101  0.30842784  0.15869609     0.20000
S930        S  0.11911719  0.32457301  0.21409186    -0.30600
H931        H  0.13406390  0.37144835  0.20034600     0.10300
C932        C  0.14192316  0.40842493  0.17075182     0.03600
C933        C  0.14754023  0.43336444  0.17186383    -0.12900
C934        C  0.17111625  0.44108918  0.17639508    -0.08600
C935        C  0.18981521  0.42358708  0.17858894     0.07000
C936        C  0.18413858  0.39878423  0.17770808    -0.13700
S937        S  0.11133657  0.39886726  0.16522514    -0.30600
H938        H  0.13329480  0.44687370  0.17009153     0.11300
S939        S  0.22112610  0.43182243  0.18282061    -0.27700
H940        H  0.19832423  0.38541138  0.18016427     0.08500
H941        H  0.11592338  0.34826624  0.22120740     0.26900
H942        H  0.10235755  0.42215236  0.16098916     0.21700
H943        H  0.22045330  0.45370398  0.17321515     0.27000
H944        H  0.16945935  0.37708044  0.14143472     0.15900
C945        C  0.95215032  0.41050912  0.17294067    -0.11400
C946        C  0.93318270  0.40222347  0.16198491     0.15100
C947        C  0.92016670  0.41909159  0.15152771     0.02000
C948        C  0.92535531  0.44402504  0.15317831    -0.15800
C949        C  0.94330299  0.45234097  0.16504171    -0.10600
C950        C  0.95744898  0.43532640  0.17450365     0.08700
C951        C  0.92536909  0.37663599  0.16407303     0.09800
S952        S  0.89616741  0.40996876  0.13651105    -0.24900
H953        H  0.91462644  0.45708042  0.14577187     0.20000
S954        S  0.98199098  0.44500452  0.18890284    -0.30600
H955        H  0.96198721  0.39754357  0.18103049     0.10300
C956        C  0.94135456  0.35699412  0.16031009     0.03600
C957        C  0.93498770  0.33353822  0.16584966    -0.12900
C958        C  0.91282862  0.32926271  0.17491097    -0.08600
C959        C  0.89611837  0.34876321  0.17753106     0.07000
C960        C  0.90273921  0.37222410  0.17233830    -0.13700
S961        S  0.97005544  0.36187356  0.14877113    -0.30600
H962        H  0.94778068  0.31865667  0.16373528     0.11300
S963        S  0.86615390  0.34513133  0.18735987    -0.27700
H964        H  0.89040260  0.38731761  0.17519919     0.08500
H965        H  0.99233966  0.42176748  0.19133550     0.26900
H966        H  0.97722216  0.33722621  0.14760795     0.21700
H967        H  0.86244400  0.32144880  0.18044725     0.27000
H968        H  0.90517649  0.38628204  0.13311837     0.15900
C969        C  0.99382251  0.25273731  0.16025326    -0.11400
C970        C  0.00962986  0.26191706  0.17342123     0.15100
C971        C  0.99987197  0.27349126  0.18888682     0.02000
C972        C  0.97469796  0.27544802  0.19096711    -0.15800
C973        C  0.95870132  0.26541839  0.17830114    -0.10600
C974        C  0.96830512  0.25436238  0.16256654     0.08700
C975        C  0.03628755  0.25916577  0.17121748     0.09800
S976        S  0.01846802  0.28596864  0.20663845    -0.24900
H977        H  0.96751159  0.28459909  0.20281622     0.20000
S978        S  0.94830724  0.24137052  0.14590819    -0.30600
H979        H  0.00153366  0.24399292  0.14839484     0.10300
C980        C  0.04807811  0.23743214  0.17604701     0.03600
C981        C  0.07339101  0.23750218  0.17862995    -0.12900
C982        C  0.08711256  0.25897944  0.17675108    -0.08600
C983        C  0.07538494  0.28022660  0.17035278     0.07000
C984        C  0.05010093  0.27996719  0.16762707    -0.13700
S985        S  0.03055249  0.21034802  0.18067971    -0.30600
H986        H  0.08239480  0.22104401  0.18303291     0.11300
S987        S  0.09114770  0.30877407  0.16760939    -0.27700
H988        H  0.04068144  0.29662270  0.16410733     0.08500
H989        H  0.96677102  0.23350798  0.13390253     0.26900
H990        H  0.05043159  0.19532613  0.18511077     0.21700
H991        H  0.07336531  0.32000613  0.15696506     0.27000
H992        H  0.03688413  0.26806831  0.20568939     0.15900
C993        C  0.16167830  0.26178908  0.28491628    -0.11400
C994        C  0.16940313  0.23896399  0.27866365     0.15100
C995        C  0.17619491  0.22110432  0.29113388     0.02000
C996        C  0.17369696  0.22611087  0.30964888    -0.15800
C997        C  0.16435906  0.24868551  0.31609239    -0.10600
C998        C  0.15871590  0.26687819  0.30318938     0.08700
C999        C  0.16628017  0.23420607  0.25917539     0.09800
S1000       S  0.18702349  0.19132364  0.28422807    -0.24900
H1001       H  0.17820564  0.21176818  0.31882831     0.20000
S1002       S  0.14628053  0.29657638  0.30930818    -0.30600
H1003       H  0.15660103  0.27534621  0.27518566     0.10300
C1004       C  0.14325611  0.22743399  0.25261553     0.03600
C1005       C  0.13794198  0.23038593  0.23441595    -0.12900
C1006       C  0.15475806  0.24125175  0.22247475    -0.08600
C1007       C  0.17888476  0.24548617  0.22886502     0.07000
C1008       C  0.18417078  0.24222498  0.24712065    -0.13700
S1009       S  0.11977022  0.21695883  0.26784123    -0.30600
H1010       H  0.12014743  0.22482857  0.23004479     0.11300
S1011       S  0.20287330  0.25654606  0.21425412    -0.27700
H1012       H  0.20186731  0.24734385  0.25230727     0.08500
H1013       H  0.14174240  0.30518651  0.29198780     0.26900
H1014       H  0.09998898  0.21986977  0.25614122     0.21700
H1015       H  0.22070728  0.26020164  0.22746334     0.27000
H1016       H  0.19566496  0.19819744  0.26724518     0.15900
C1017       C  0.86804082  0.26864321  0.29157319    -0.11400
C1018       C  0.88340098  0.25463420  0.28031435     0.15100
C1019       C  0.90155260  0.24008374  0.28819314     0.02000
C1020       C  0.90659432  0.24282516  0.30647646    -0.15800
C1021       C  0.89400383  0.26007953  0.31737139    -0.10600
C1022       C  0.87254313  0.27072609  0.31013288     0.08700
C1023       C  0.88462013  0.26002976  0.26079368     0.09800
S1024       S  0.92030022  0.21916322  0.27518730    -0.24900
H1025       H  0.92098330  0.23168129  0.31187354     0.20000
S1026       S  0.85139975  0.28797012  0.32413861    -0.30600
H1027       H  0.85353384  0.27921063  0.28563798     0.10300
C1028       C  0.86839551  0.25045146  0.24796227     0.03600
C1029       C  0.87237462  0.25510794  0.22954338    -0.12900
C1030       C  0.89235334  0.26930110  0.22364025    -0.08600
C1031       C  0.90798899  0.27952076  0.23700427     0.07000
C1032       C  0.90388108  0.27467552  0.25511109    -0.13700
S1033       S  0.84331401  0.23152676  0.25504572    -0.30600
H1034       H  0.86012805  0.24711654  0.21989389     0.11300
S1035       S  0.93428714  0.29814159  0.23160837    -0.27700
H1036       H  0.91629074  0.28188992  0.26507899     0.08500
H1037       H  0.83359552  0.29169842  0.31096236     0.26900
H1038       H  0.83455047  0.22598451  0.23780815     0.21700
H1039       H  0.93785262  0.30819049  0.24882665     0.27000
H1040       H  0.90311977  0.21515892  0.26156960     0.15900
C1041       C  0.05570295  0.28076048  0.35320388    -0.11400
C1042       C  0.04520578  0.26459511  0.36539689     0.15100
C1043       C  0.06035088  0.24884616  0.37520675     0.02000
C1044       C  0.08566929  0.24906526  0.37212915    -0.15800
C1045       C  0.09603548  0.26459878  0.35936050    -0.10600
C1046       C  0.08089798  0.28094766  0.35006033     0.08700
C1047       C  0.01826454  0.26366463  0.36619210     0.09800
S1048       S  0.04839476  0.22773095  0.39135355    -0.24900
H1049       H  0.09725534  0.23652573  0.37930781     0.20000
S1050       S  0.09349694  0.30253513  0.33445720    -0.30600
H1051       H  0.04392245  0.29288043  0.34583278     0.10300
C1052       C  0.00457467  0.28342392  0.37309502     0.03600
C1053       C  0.97942655  0.28447702  0.36992513    -0.12900
C1054       C  0.96748215  0.26608135  0.35999923    -0.08600
C1055       C  0.98105196  0.24487655  0.35497043     0.07000
C1056       C  0.00630962  0.24425682  0.35769085    -0.13700
S1057       S  0.01937386  0.30772245  0.38542742    -0.30600
H1058       H  0.96956254  0.30055991  0.37434237     0.11300
S1059       S  0.96759145  0.21762517  0.34559903    -0.27700
H1060       H  0.01684771  0.22872816  0.35279854     0.08500
H1061       H  0.07119529  0.31236343  0.32866042     0.26900
H1062       H  0.99821670  0.32158202  0.38920150     0.21700
H1063       H  0.94520395  0.22032622  0.35484408     0.27000
H1064       H  0.02746285  0.24141806  0.39604035     0.15900
C1065       C  0.21852131  0.50167048  0.28433740    -0.11400
C1066       C  0.20308344  0.51880655  0.27637669     0.15100
C1067       C  0.18791288  0.53341902  0.28752353     0.02000
C1068       C  0.18562203  0.52796094  0.30571211    -0.15800
C1069       C  0.19741469  0.50749203  0.31303668    -0.10600
C1070       C  0.21658847  0.49662023  0.30270054     0.08700
C1071       C  0.19877873  0.51699489  0.25677244     0.09800
S1072       S  0.16922414  0.55768953  0.27894027    -0.24900
H1073       H  0.17282120  0.53855147  0.31382288     0.20000
S1074       S  0.24035417  0.47806777  0.31214432    -0.30600
H1075       H  0.23140063  0.49139676  0.27606640     0.10300
C1076       C  0.21591897  0.52408746  0.24368356     0.03600
C1077       C  0.21083953  0.52010414  0.22534253    -0.12900
C1078       C  0.18901240  0.50866889  0.21979212    -0.08600
C1079       C  0.17179602  0.50188242  0.23334984     0.07000
C1080       C  0.17691291  0.50630726  0.25139861    -0.13700
S1081       S  0.24407900  0.53838855  0.25041458    -0.30600
H1082       H  0.22424722  0.52554913  0.21553431     0.11300
S1083       S  0.14340618  0.48632017  0.22833299    -0.27700
H1084       H  0.16404788  0.50060764  0.26162480     0.08500
H1085       H  0.23789221  0.48793606  0.32957100     0.26900
H1086       H  0.25459290  0.53962515  0.23318416     0.21700
H1087       H  0.13243256  0.48863968  0.24539370     0.27000
H1088       H  0.18373499  0.56194910  0.26365855     0.15900
C1089       C  0.18847262  0.40185660  0.37481025    -0.11400
C1090       C  0.17766744  0.38519996  0.36291951     0.15100
C1091       C  0.16824775  0.39352845  0.34651310     0.02000
C1092       C  0.16984874  0.41824015  0.34236530    -0.15800
C1093       C  0.18078628  0.43494123  0.35416306    -0.10600
C1094       C  0.19023861  0.42660941  0.37056146     0.08700
C1095       C  0.17560143  0.35929992  0.36787524     0.09800
S1096       S  0.15329110  0.37369067  0.33053981    -0.24900
H1097       H  0.16220858  0.42457795  0.32990095     0.20000
S1098       S  0.20510719  0.44650199  0.38642713    -0.30600
H1099       H  0.19564267  0.39550195  0.38741636     0.10300
C1100       C  0.19492243  0.34279867  0.36468508     0.03600
C1101       C  0.19007972  0.31771393  0.36446758    -0.12900
C1102       C  0.16621868  0.30884735  0.36719345    -0.08600
C1103       C  0.14776649  0.32547290  0.37301039     0.07000
C1104       C  0.15270837  0.35053841  0.37311597    -0.13700
S1105       S  0.22500980  0.35370845  0.35886156    -0.30600
H1106       H  0.20449511  0.30505407  0.36063581     0.11300
S1107       S  0.11717272  0.31598105  0.37862497    -0.27700
H1108       H  0.13815996  0.36352683  0.37589882     0.08500
H1109       H  0.21596025  0.46144771  0.37345053     0.26900
H1110       H  0.23675975  0.33084274  0.35897808     0.21700
H1111       H  0.10914686  0.33824313  0.38624603     0.27000
H1112       H  0.16745645  0.35281484  0.33377530     0.15900
C1113       C  0.93450113  0.55363651  0.27332032    -0.11400
C1114       C  0.91987414  0.53804490  0.26296106     0.15100
C1115       C  0.90447868  0.52149423  0.27189693     0.02000
C1116       C  0.90605022  0.51910333  0.29053708    -0.15800
C1117       C  0.92373499  0.53173980  0.30072738    -0.10600
C1118       C  0.93611306  0.55122251  0.29202799     0.08700
C1119       C  0.92563199  0.53507494  0.24347595     0.09800
S1120       S  0.88452891  0.50064446  0.26021315    -0.24900
H1121       H  0.89389947  0.50625292  0.29682225     0.20000
S1122       S  0.95533237  0.57301870  0.30344916    -0.30600
H1123       H  0.94593939  0.56687345  0.26663354     0.10300
C1124       C  0.91230211  0.54617538  0.22969615     0.03600
C1125       C  0.91793171  0.54045036  0.21156329    -0.12900
C1126       C  0.93711458  0.52414239  0.20681579    -0.08600
C1127       C  0.95131701  0.51440990  0.22105222     0.07000
C1128       C  0.94519143  0.51981285  0.23891494    -0.13700
S1129       S  0.88770151  0.56700379  0.23529054    -0.30600
H1130       H  0.90693622  0.54850938  0.20128942     0.11300
S1131       S  0.97726143  0.49440231  0.21710836    -0.27700
H1132       H  0.95551463  0.51167034  0.24963213     0.08500
H1133       H  0.94298309  0.57236112  0.31994812     0.26900
H1134       H  0.88200812  0.57332610  0.21760138     0.21700
H1135       H  0.98546184  0.49300374  0.23487114     0.27000
H1136       H  0.88163650  0.51439401  0.24468499     0.15900
C1137       C  0.93489542  0.41650892  0.33480314    -0.11400
C1138       C  0.92796308  0.40978854  0.35219136     0.15100
C1139       C  0.92445256  0.42818608  0.36543188     0.02000
C1140       C  0.92550573  0.45273835  0.36048756    -0.15800
C1141       C  0.93173703  0.45937933  0.34291158    -0.10600
C1142       C  0.93793841  0.44086539  0.33027076     0.08700
C1143       C  0.92519690  0.38335394  0.35561799     0.09800
S1144       S  0.91962096  0.42172113  0.38884123    -0.24900
H1145       H  0.92176650  0.46677339  0.37051657     0.20000
S1146       S  0.95172673  0.44671517  0.30869570    -0.30600
H1147       H  0.93865648  0.40252434  0.32472695     0.10300
C1148       C  0.90242968  0.37291040  0.36017718     0.03600
C1149       C  0.90009281  0.34740060  0.36017605    -0.12900
C1150       C  0.91958551  0.33228979  0.35474517    -0.08600
C1151       C  0.94212482  0.34283863  0.34986466     0.07000
C1152       C  0.94498358  0.36803354  0.35117958    -0.13700
S1153       S  0.87574109  0.39179123  0.36414517    -0.30600
H1154       H  0.88265113  0.33917186  0.36335968     0.11300
S1155       S  0.96709249  0.32575500  0.33994592    -0.27700
H1156       H  0.96229765  0.37596425  0.34721310     0.08500
H1157       H  0.96585469  0.46651678  0.31470714     0.26900
H1158       H  0.85938936  0.37277308  0.36793353     0.21700
H1159       H  0.95247289  0.31093141  0.32896361     0.27000
H1160       H  0.93076675  0.39858167  0.38851774     0.15900
C1161       C  0.03555746  0.52084523  0.34322616    -0.11400
C1162       C  0.04296307  0.49694297  0.34693622     0.15100
C1163       C  0.02516119  0.47855182  0.34874752     0.02000
C1164       C  0.00054314  0.48427371  0.34597232    -0.15800
C1165       C  0.99320853  0.50811737  0.34186417    -0.10600
C1166       C  0.01088572  0.52674555  0.34112287     0.08700
C1167       C  0.06949028  0.49191973  0.34793212     0.09800
S1168       S  0.03270131  0.44745240  0.35410901    -0.24900
H1169       H  0.98704863  0.46990235  0.34674550     0.20000
S1170       S  0.00310573  0.55837970  0.33801653    -0.30600
H1171       H  0.04918963  0.53500660  0.34187860     0.10300
C1172       C  0.08207344  0.48026426  0.33366610     0.03600
C1173       C  0.10760906  0.47874801  0.33408629    -0.12900
C1174       C  0.12093173  0.48919564  0.34825481    -0.08600
C1175       C  0.10825076  0.50029304  0.36277501     0.07000
C1176       C  0.08261442  0.50123596  0.36254006    -0.13700
S1177       S  0.06580113  0.46882877  0.31435104    -0.30600
H1178       H  0.11738870  0.47022927  0.32296680     0.11300
S1179       S  0.12443996  0.51536251  0.38073336    -0.27700
H1180       H  0.07268720  0.51004604  0.37342937     0.08500
H1181       H  0.98006401  0.55725252  0.34647417     0.26900
H1182       H  0.08609536  0.45827943  0.30546710     0.21700
H1183       H  0.10383162  0.52207283  0.39109583     0.27000
H1184       H  0.05412258  0.45279166  0.36361652     0.15900
C1185       C  0.25827478  0.39095386  0.09842608    -0.11400
C1186       C  0.25342268  0.37813221  0.11416577     0.15100
C1187       C  0.25351377  0.39047314  0.13085047     0.02000
C1188       C  0.25602118  0.41587753  0.13131038    -0.15800
C1189       C  0.25821758  0.42898599  0.11538010    -0.10600
C1190       C  0.26083439  0.41628925  0.09888419     0.08700
C1191       C  0.24451170  0.35286553  0.11272365     0.09800
S1192       S  0.24781948  0.37429459  0.15138068    -0.24900
H1193       H  0.25403371  0.42568352  0.14394058     0.20000
S1194       S  0.26644466  0.43150820  0.07797660    -0.30600
H1195       H  0.25867611  0.38132949  0.08564487     0.10300
C1196       C  0.22029892  0.34826130  0.10754152     0.03600
C1197       C  0.21127019  0.32446349  0.10826933    -0.12900
C1198       C  0.22600776  0.30497402  0.11391721    -0.08600
C1199       C  0.25087658  0.30960041  0.11796309     0.07000
C1200       C  0.25968653  0.33352894  0.11761913    -0.13700
S1201       S  0.20045586  0.37293849  0.10082992    -0.30600
H1202       H  0.19241131  0.32121330  0.10481927     0.11300
S1203       S  0.27237911  0.28616550  0.12383781    -0.27700
H1204       H  0.27840532  0.33716587  0.12133728     0.08500
H1205       H  0.27820559  0.45186221  0.08562212     0.26900
H1206       H  0.17905336  0.35904487  0.09897009     0.21700
H1207       H  0.26724823  0.27172484  0.10859773     0.27000
H1208       H  0.25439312  0.39347785  0.16305239     0.15900
C1209       C  0.20494746  0.53760293  0.99542358    -0.11400
C1210       C  0.20373643  0.51666949  0.00600308     0.15100
C1211       C  0.20278018  0.49353692  0.99747210     0.02000
C1212       C  0.20451777  0.49176611  0.97875361    -0.15800
C1213       C  0.20699191  0.51259412  0.96813223    -0.10600
C1214       C  0.20686731  0.53583571  0.97666738     0.08700
C1215       C  0.20830018  0.51907595  0.02555607     0.09800
S1216       S  0.20134279  0.46548876  0.00979278    -0.24900
H1217       H  0.20472721  0.47383537  0.97244181     0.20000
S1218       S  0.21192871  0.56369150  0.96466520    -0.30600
H1219       H  0.20624439  0.55536647  0.00189972     0.10300
C1220       C  0.23221769  0.51697229  0.03211211     0.03600
C1221       C  0.23616828  0.51748856  0.05062123    -0.12900
C1222       C  0.21675392  0.52007762  0.06306750    -0.08600
C1223       C  0.19282524  0.52361236  0.05633397     0.07000
C1224       C  0.18887014  0.52287811  0.03770559    -0.13700
S1225       S  0.25782657  0.51303037  0.01683838    -0.30600
H1226       H  0.25462599  0.51513558  0.05537630     0.11300
S1227       S  0.16660581  0.52900556  0.07058680    -0.27700
H1228       H  0.17050004  0.52495119  0.03264688     0.08500
H1229       H  0.23163505  0.55440090  0.95438690     0.26900
H1230       H  0.27623080  0.51218627  0.02985406     0.21700
H1231       H  0.17841720  0.54674023  0.08117240     0.27000
H1232       H  0.18892159  0.47516321  0.02484610     0.15900
C1233       C  0.15542811  0.20839082  0.99714857    -0.11400
C1234       C  0.16331716  0.22665057  0.00908843     0.15100
C1235       C  0.17473110  0.24766518  0.00226067     0.02000
C1236       C  0.17852222  0.24966018  0.98381941    -0.15800
C1237       C  0.17192553  0.23084280  0.97185891    -0.10600
C1238       C  0.15953936  0.21022927  0.97857904     0.08700
C1239       C  0.16174972  0.22230310  0.02860958     0.09800
S1240       S  0.18619777  0.27202617  0.01633247    -0.24900
H1241       H  0.18788165  0.26561343  0.97885425     0.20000
S1242       S  0.15057960  0.18531399  0.96399851    -0.30600
H1243       H  0.14684051  0.19227506  0.00252900     0.10300
C1244       C  0.14595398  0.23585868  0.03998726     0.03600
C1245       C  0.14854984  0.23425953  0.05865876    -0.12900
C1246       C  0.16660288  0.21926265  0.06607177    -0.08600
C1247       C  0.18055018  0.20375009  0.05461809     0.07000
C1248       C  0.17810136  0.20558938  0.03601201    -0.13700
S1249       S  0.12334109  0.25599021  0.03069858    -0.30600
H1250       H  0.13764294  0.24594442  0.06742354     0.11300
S1251       S  0.20175732  0.18176350  0.06354880    -0.27700
H1252       H  0.18978960  0.19483199  0.02715238     0.08500
H1253       H  0.13920267  0.17108151  0.97719002     0.26900
H1254       H  0.11099458  0.26113981  0.04693788     0.21700
H1255       H  0.20664817  0.16929429  0.04729780     0.27000
H1256       H  0.19346245  0.25727792  0.03059797     0.15900
C1257       C  0.25389488  0.38944871  0.89620267    -0.11400
C1258       C  0.26024510  0.37942523  0.91269318     0.15100
C1259       C  0.26825856  0.39485115  0.92671695     0.02000
C1260       C  0.26673292  0.42011757  0.92473132    -0.15800
C1261       C  0.25761638  0.43015319  0.90893636    -0.10600
C1262       C  0.25269072  0.41469201  0.89412360     0.08700
C1263       C  0.25377256  0.35376800  0.91578184     0.09800
S1264       S  0.27836954  0.38338132  0.94795188    -0.24900
H1265       H  0.27094919  0.43190082  0.93604851     0.20000
S1266       S  0.24384983  0.42599396  0.87252406    -0.30600
H1267       H  0.24824447  0.37757981  0.88528312     0.10300
C1268       C  0.23256126  0.34802626  0.92566511     0.03600
C1269       C  0.22520500  0.32374559  0.92675061    -0.12900
C1270       C  0.23837661  0.30496154  0.91801533    -0.08600
C1271       C  0.26005730  0.31076207  0.90850723     0.07000
C1272       C  0.26734642  0.33513811  0.90733212    -0.13700
S1273       S  0.21390913  0.37172613  0.93600768    -0.30600
H1274       H  0.20868986  0.31943991  0.93412525     0.11300
S1275       S  0.27812756  0.28835218  0.89649030    -0.27700
H1276       H  0.28344370  0.33969599  0.89952478     0.08500
H1277       H  0.25565773  0.44862383  0.87432335     0.26900
H1278       H  0.19538993  0.35650864  0.94266120     0.21700
H1279       H  0.28337885  0.27515783  0.91204508     0.27000
H1280       H  0.28560133  0.36025115  0.94144320     0.15900
C1281       C  0.02057683  0.24614403  0.87220775    -0.11400
C1282       C  0.03335944  0.26805373  0.87440725     0.15100
C1283       C  0.02038750  0.29029575  0.87556581     0.02000
C1284       C  0.99530396  0.29042501  0.87235756    -0.15800
C1285       C  0.98294156  0.26871572  0.86823324    -0.10600
C1286       C  0.99543092  0.24620549  0.86936159     0.08700
C1287       C  0.05983783  0.26745920  0.87090109     0.09800
S1288       S  0.03521861  0.31917000  0.87955419    -0.24900
H1289       H  0.98581173  0.30777456  0.87178745     0.20000
S1290       S  0.98062236  0.21709926  0.86648243    -0.30600
H1291       H  0.03049295  0.22900336  0.87146002     0.10300
C1292       C  0.07621940  0.25507952  0.88203914     0.03600
C1293       C  0.10047334  0.25176158  0.87630342    -0.12900
C1294       C  0.10837528  0.26054119  0.85965738    -0.08600
C1295       C  0.09220813  0.27417627  0.84904221     0.07000
C1296       C  0.06809040  0.27717943  0.85468880    -0.13700
S1297       S  0.06618760  0.24351301  0.90339783    -0.30600
H1298       H  0.11317799  0.24182881  0.88455241     0.11300
S1299       S  0.10090336  0.28825496  0.82821225    -0.27700
H1300       H  0.05542569  0.28674956  0.84615471     0.08500
H1301       H  0.95735289  0.22519973  0.87215583     0.26900
H1302       H  0.08940008  0.23624782  0.90933288     0.21700
H1303       H  0.12505300  0.29349451  0.83296600     0.27000
H1304       H  0.05576405  0.30947878  0.88818165     0.15900
C1305       C  0.96146822  0.42496021  0.85547574    -0.11400
C1306       C  0.94132979  0.41107410  0.84995136     0.15100
C1307       C  0.92172281  0.42288059  0.84143327     0.02000
C1308       C  0.92252241  0.44806547  0.83887181    -0.15800
C1309       C  0.94317896  0.46188776  0.84351782    -0.10600
C1310       C  0.96298532  0.45002357  0.85188098     0.08700
C1311       C  0.94161540  0.38420219  0.85243416     0.09800
S1312       S  0.89584778  0.40668109  0.83245828    -0.24900
H1313       H  0.90715866  0.45680921  0.83247848     0.20000
S1314       S  0.99110658  0.46576144  0.85672938    -0.30600
H1315       H  0.97646340  0.41584505  0.86202650     0.10300
C1316       C  0.95872384  0.36917254  0.84322025     0.03600
C1317       C  0.95669257  0.34374674  0.84427671    -0.12900
C1318       C  0.93786805  0.33295997  0.85424338    -0.08600
C1319       C  0.92119902  0.34787533  0.86383493     0.07000
C1320       C  0.92339896  0.37336657  0.86304737    -0.13700
S1321       S  0.98199445  0.38215479  0.82893542    -0.30600
H1322       H  0.96920570  0.33211497  0.83672638     0.11300
S1323       S  0.89603489  0.33457443  0.87593162    -0.27700
H1324       H  0.91036354  0.38493131  0.87015947     0.08500
H1325       H  0.00535026  0.44496306  0.86016986     0.26900
H1326       H  0.99466849  0.36028646  0.82516020     0.21700
H1327       H  0.88168226  0.35590410  0.87662768     0.27000
H1328       H  0.90905719  0.38582157  0.82690688     0.15900
C1329       C  0.03108671  0.53211094  0.86368083    -0.11400
C1330       C  0.04728901  0.52168656  0.85103930     0.15100
C1331       C  0.03827743  0.51284057  0.83454576     0.02000
C1332       C  0.01337095  0.51437234  0.83111814    -0.15800
C1333       C  0.99697628  0.52453868  0.84373729    -0.10600
C1334       C  0.00598431  0.53371134  0.86016762     0.08700
C1335       C  0.07327035  0.51854122  0.85553569     0.09800
S1336       S  0.05728611  0.49814821  0.81763762    -0.24900
H1337       H  0.00660601  0.50684016  0.81863918     0.20000
S1338       S  0.98657603  0.54770718  0.87704703    -0.30600
H1339       H  0.03801356  0.53881241  0.87636559     0.10300
C1340       C  0.09043770  0.53695717  0.85216265     0.03600
C1341       C  0.11537069  0.53107114  0.85203005    -0.12900
C1342       C  0.12345242  0.50711693  0.85516916    -0.08600
C1343       C  0.10615222  0.48935847  0.86044063     0.07000
C1344       C  0.08124263  0.49535051  0.86047626    -0.13700
S1345       S  0.08049526  0.56722648  0.84630289    -0.30600
H1346       H  0.12860988  0.54483005  0.84837389     0.11300
S1347       S  0.11478226  0.45845547  0.86554222    -0.27700
H1348       H  0.06769335  0.48147852  0.86316935     0.08500
H1349       H  0.96933573  0.55698964  0.86504411     0.26900
H1350       H  0.10388691  0.57774726  0.84553228     0.21700
H1351       H  0.09133785  0.44973654  0.86982696     0.27000
H1352       H  0.07875987  0.51119317  0.82120712     0.15900
C1353       C  0.15631625  0.39728301  0.84364761    -0.11400
C1354       C  0.16683685  0.38752449  0.85900528     0.15100
C1355       C  0.17736720  0.40330701  0.87185932     0.02000
C1356       C  0.17855421  0.42837326  0.86846018    -0.15800
C1357       C  0.16917691  0.43797689  0.85258525    -0.10600
C1358       C  0.15693261  0.42226531  0.84043372     0.08700
C1359       C  0.16791298  0.36069791  0.86024995     0.09800
S1360       S  0.18988203  0.39259001  0.89259533    -0.24900
H1361       H  0.18748320  0.44036065  0.87801817     0.20000
S1362       S  0.14127801  0.43275564  0.82075754    -0.30600
H1363       H  0.14774985  0.38521496  0.83395043     0.10300
C1364       C  0.14680105  0.34697526  0.86387574     0.03600
C1365       C  0.14770987  0.32155035  0.86197111    -0.12900
C1366       C  0.16925391  0.30958962  0.85632803    -0.08600
C1367       C  0.19078900  0.32330046  0.85386992     0.07000
C1368       C  0.18983126  0.34872364  0.85568543    -0.13700
S1369       S  0.11857356  0.36191728  0.87045037    -0.30600
H1370       H  0.13126483  0.31105313  0.86413913     0.11300
S1371       S  0.21996510  0.30948166  0.84860530    -0.27700
H1372       H  0.20613965  0.35932366  0.85310456     0.08500
H1373       H  0.13506005  0.45591408  0.82772553     0.26900
H1374       H  0.10495778  0.34057583  0.87332468     0.21700
H1375       H  0.21544404  0.28762554  0.85770370     0.27000
H1376       H  0.17660000  0.37075403  0.89343869     0.15900
C1377       C  0.93768862  0.52383429  0.76715671    -0.11400
C1378       C  0.91820990  0.53923459  0.76309658     0.15100
C1379       C  0.90436037  0.54993572  0.77716467     0.02000
C1380       C  0.91013494  0.54459601  0.79503183    -0.15800
C1381       C  0.92983610  0.52900921  0.79928929    -0.10600
C1382       C  0.94392742  0.51881748  0.78482381     0.08700
C1383       C  0.91345690  0.54298031  0.74382070     0.09800
S1384       S  0.87930947  0.57061070  0.77325260    -0.24900
H1385       H  0.89913635  0.55308092  0.80544789     0.20000
S1386       S  0.96999639  0.49893938  0.78825195    -0.30600
H1387       H  0.94809435  0.51556322  0.75622619     0.10300
C1388       C  0.93008080  0.55623074  0.73331550     0.03600
C1389       C  0.93048874  0.55267571  0.71469212    -0.12900
C1390       C  0.91544474  0.53509750  0.70639267    -0.08600
C1391       C  0.89549773  0.52596649  0.71665093     0.07000
C1392       C  0.89528990  0.52925046  0.73533067    -0.13700
S1393       S  0.95209146  0.57612933  0.74384934    -0.30600
H1394       H  0.94387021  0.56235106  0.70677957     0.11300
S1395       S  0.86963659  0.51044649  0.70698151    -0.27700
H1396       H  0.88160069  0.52007387  0.74335342     0.08500
H1397       H  0.97989946  0.50015257  0.77082496     0.26900
H1398       H  0.96528642  0.58182062  0.72820031     0.21700
H1399       H  0.87217072  0.52069078  0.68991933     0.27000
H1400       H  0.88678725  0.57814897  0.75614729     0.15900
C1401       C  0.20887660  0.51526742  0.74158990    -0.11400
C1402       C  0.19085019  0.51626420  0.75506454     0.15100
C1403       C  0.16611509  0.51584124  0.75010622     0.02000
C1404       C  0.15985951  0.51341089  0.73209536    -0.15800
C1405       C  0.17767919  0.51045180  0.71836387    -0.10600
C1406       C  0.20268469  0.51203933  0.72340880     0.08700
C1407       C  0.19771411  0.51504514  0.77426567     0.09800
S1408       S  0.14129937  0.51629130  0.76626512    -0.24900
H1409       H  0.14073034  0.51191145  0.72957270     0.20000
S1410       S  0.22720629  0.50811397  0.70719982    -0.30600
H1411       H  0.22786334  0.51559628  0.74548569     0.10300
C1412       C  0.20707188  0.49335270  0.78144559     0.03600
C1413       C  0.20650590  0.49013309  0.80005016    -0.12900
C1414       C  0.19491405  0.50721728  0.81168424    -0.08600
C1415       C  0.18971395  0.53066818  0.80457742     0.07000
C1416       C  0.19091852  0.53412375  0.78599231    -0.13700
S1417       S  0.21700079  0.46847830  0.76693248    -0.30600
H1418       H  0.21403232  0.47350396  0.80524798     0.11300
S1419       S  0.17963076  0.55658816  0.81791705    -0.27700
H1420       H  0.18472846  0.55126368  0.78051722     0.08500
H1421       H  0.24634456  0.51565872  0.71841998     0.26900
H1422       H  0.22488013  0.45275053  0.78046387     0.21700
H1423       H  0.19270695  0.55072120  0.83331011     0.27000
H1424       H  0.15235145  0.50020028  0.77830203     0.15900
C1425       C  0.02744527  0.52819126  0.66717811    -0.11400
C1426       C  0.03623048  0.50591903  0.66027734     0.15100
C1427       C  0.01969298  0.48897485  0.65295552     0.02000
C1428       C  0.99459535  0.49348924  0.65445750    -0.15800
C1429       C  0.98560236  0.51445773  0.66337651    -0.10600
C1430       C  0.00238023  0.53292174  0.66835549     0.08700
C1431       C  0.06221748  0.49986932  0.66296032     0.09800
S1432       S  0.02948968  0.46086611  0.64227073    -0.24900
H1433       H  0.98221589  0.48001255  0.64915448     0.20000
S1434       S  0.99317038  0.56305276  0.67579555    -0.30600
H1435       H  0.04020220  0.54170692  0.67214145     0.10300
C1436       C  0.08096765  0.51194289  0.65366336     0.03600
C1437       C  0.10535365  0.50785657  0.65833722    -0.12900
C1438       C  0.11116588  0.49249033  0.67253630    -0.08600
C1439       C  0.09238205  0.47974728  0.68148619     0.07000
C1440       C  0.06812950  0.48350050  0.67651720    -0.13700
S1441       S  0.07376482  0.53293530  0.63617354    -0.30600
H1442       H  0.11986144  0.51754797  0.65152262     0.11300
S1443       S  0.09789114  0.45922912  0.69975265    -0.27700
H1444       H  0.05364222  0.47431168  0.68374239     0.08500
H1445       H  0.97139665  0.56338670  0.66590910     0.26900
H1446       H  0.09691661  0.54393199  0.63545876     0.21700
H1447       H  0.12238704  0.45382987  0.69558791     0.27000
H1448       H  0.05251792  0.46936490  0.63670770     0.15900
C1449       C  0.19248496  0.21623764  0.74656274    -0.11400
C1450       C  0.19116253  0.23534272  0.75921361     0.15100
C1451       C  0.18942823  0.25943070  0.75317303     0.02000
C1452       C  0.18847430  0.26388161  0.73487804    -0.15800
C1453       C  0.18899974  0.24499936  0.72171901    -0.10600
C1454       C  0.19053962  0.22058918  0.72807331     0.08700
C1455       C  0.18765902  0.23009390  0.77851251     0.09800
S1456       S  0.18631633  0.28541648  0.76819103    -0.24900
H1457       H  0.18512246  0.28257243  0.73123313     0.20000
S1458       S  0.18745453  0.19383728  0.71407629    -0.30600
H1459       H  0.19307314  0.19760494  0.75123912     0.10300
C1460       C  0.16454086  0.22320200  0.78502254     0.03600
C1461       C  0.15939549  0.22520884  0.80341011    -0.12900
C1462       C  0.17637633  0.23545469  0.81550153    -0.08600
C1463       C  0.20072420  0.23870687  0.80916997     0.07000
C1464       C  0.20595513  0.23638484  0.79072776    -0.13700
S1465       S  0.14059436  0.21442472  0.76969159    -0.30600
H1466       H  0.14164072  0.21955590  0.80786216     0.11300
S1467       S  0.22506866  0.24747317  0.82411133    -0.27700
H1468       H  0.22386039  0.24120161  0.78563969     0.08500
H1469       H  0.16600858  0.20217337  0.70587853     0.26900
H1470       H  0.12155271  0.21300198  0.78241612     0.21700
H1471       H  0.24443430  0.24262517  0.81203621     0.27000
H1472       H  0.16966907  0.27448595  0.78004703     0.15900
C1473       C  0.19898158  0.40294314  0.67366835    -0.11400
C1474       C  0.17790855  0.38964342  0.66953684     0.15100
C1475       C  0.15576095  0.40203129  0.66642311     0.02000
C1476       C  0.15475784  0.42731219  0.66871166    -0.15800
C1477       C  0.17541356  0.44047943  0.67410697    -0.10600
C1478       C  0.19804050  0.42829840  0.67574730     0.08700
C1479       C  0.17845621  0.36307867  0.67194690     0.09800
S1480       S  0.12786900  0.38638976  0.66075997    -0.24900
H1481       H  0.13741077  0.43659499  0.66709307     0.20000
S1482       S  0.22614622  0.44401369  0.68060835    -0.30600
H1483       H  0.21602866  0.39340129  0.67598589     0.10300
C1484       C  0.18806068  0.34688238  0.65886926     0.03600
C1485       C  0.18855532  0.32177919  0.66235468    -0.12900
C1486       C  0.17965412  0.31290261  0.67867888    -0.08600
C1487       C  0.16928401  0.32924729  0.69151231     0.07000
C1488       C  0.16910393  0.35415775  0.68804399    -0.13700
S1489       S  0.19904878  0.35822103  0.63771146    -0.30600
H1490       H  0.19590403  0.30905140  0.65246014     0.11300
S1491       S  0.15466804  0.31856695  0.71179424    -0.27700
H1492       H  0.16144844  0.36688256  0.69782640     0.08500
H1493       H  0.21949459  0.46597453  0.67238591     0.26900
H1494       H  0.20535480  0.33538801  0.63015112     0.21700
H1495       H  0.14689899  0.34143015  0.71850092     0.27000
H1496       H  0.13914608  0.36623913  0.65222001     0.15900
C1497       C  0.93736143  0.25855274  0.78526479    -0.11400
C1498       C  0.91554961  0.24739116  0.78025754     0.15100
C1499       C  0.89906022  0.23982056  0.79367258     0.02000
C1500       C  0.90396501  0.24520186  0.81177628    -0.15800
C1501       C  0.92506226  0.25827228  0.81688434    -0.10600
C1502       C  0.94229148  0.26436668  0.80316550     0.08700
C1503       C  0.90948901  0.24830189  0.76094145     0.09800
S1504       S  0.87092709  0.22440159  0.78843188    -0.24900
H1505       H  0.89054156  0.23988267  0.82160628     0.20000
S1506       S  0.97004879  0.28130248  0.80774393    -0.30600
H1507       H  0.94989989  0.26420483  0.77482424     0.10300
C1508       C  0.89639450  0.26832245  0.75433102     0.03600
C1509       C  0.89821483  0.27400919  0.73611005    -0.12900
C1510       C  0.91379066  0.26069242  0.72434858    -0.08600
C1511       C  0.92329388  0.23814547  0.73050711     0.07000
C1512       C  0.92162529  0.23259603  0.74883341    -0.13700
S1513       S  0.87950792  0.28827296  0.76949481    -0.30600
H1514       H  0.88815214  0.28954455  0.73150295     0.11300
S1515       S  0.93904504  0.21705540  0.71547947    -0.27700
H1516       H  0.93113477  0.21686997  0.75398230     0.08500
H1517       H  0.97799862  0.28433652  0.78994183     0.26900
H1518       H  0.87090387  0.30455281  0.75656649     0.21700
H1519       H  0.94464948  0.19934132  0.72827715     0.27000
H1520       H  0.87855596  0.21513655  0.77162778     0.15900
C1521       C  0.91340235  0.36645885  0.66259273    -0.11400
C1522       C  0.92234942  0.38363453  0.67494002     0.15100
C1523       C  0.93061233  0.37582022  0.69181005     0.02000
C1524       C  0.93144662  0.35097044  0.69541774    -0.15800
C1525       C  0.92313414  0.33367358  0.68292241    -0.10600
C1526       C  0.91332039  0.34158329  0.66654047     0.08700
C1527       C  0.92331007  0.40953851  0.66994296     0.09800
S1528       S  0.94030749  0.39656911  0.70931918    -0.24900
H1529       H  0.93866112  0.34504694  0.70812981     0.20000
S1530       S  0.89959389  0.32111273  0.65051853    -0.30600
H1531       H  0.90640963  0.37249381  0.64984642     0.10300
C1532       C  0.94583153  0.42171267  0.66836049     0.03600
C1533       C  0.94599142  0.44712723  0.66726234    -0.12900
C1534       C  0.92414488  0.46044536  0.66662132    -0.08600
C1535       C  0.90163072  0.44798450  0.66644528     0.07000
C1536       C  0.90140979  0.42264357  0.66831987    -0.13700
S1537       S  0.97437823  0.40502541  0.66857030    -0.30600
H1538       H  0.96311706  0.45665497  0.66833155     0.11300
S1539       S  0.87268750  0.46363000  0.66493829    -0.27700
H1540       H  0.88407903  0.41320719  0.66923952     0.08500
H1541       H  0.88972549  0.30540167  0.66342179     0.26900
H1542       H  0.98961202  0.42497318  0.66482934     0.21700
H1543       H  0.88171798  0.48402488  0.65579582     0.27000
H1544       H  0.92465295  0.41583850  0.70471853     0.15900
C1545       C  0.08012583  0.28690864  0.67460020    -0.11400
C1546       C  0.06508067  0.27045738  0.68367471     0.15100
C1547       C  0.07596316  0.25035579  0.69217002     0.02000
C1548       C  0.10136227  0.24733206  0.69151154    -0.15800
C1549       C  0.11682405  0.26459507  0.68342608    -0.10600
C1550       C  0.10574767  0.28464334  0.67464529     0.08700
C1551       C  0.03812501  0.27451932  0.68387591     0.09800
S1552       S  0.05861926  0.22844603  0.70480256    -0.24900
H1553       H  0.10916706  0.23158187  0.69798621     0.20000
S1554       S  0.12327619  0.30863367  0.66443199    -0.30600
H1555       H  0.07160672  0.30204243  0.66785426     0.10300
C1556       C  0.02738280  0.29539579  0.69210517     0.03600
C1557       C  0.00177660  0.29756957  0.69293984    -0.12900
C1558       C  0.98673018  0.27933368  0.68575416    -0.08600
C1559       C  0.99741383  0.25879931  0.67722192     0.07000
C1560       C  0.02294718  0.25668864  0.67624745    -0.13700
S1561       S  0.04611896  0.31849208  0.70260940    -0.30600
H1562       H  0.99336599  0.31305909  0.69976034     0.11300
S1563       S  0.97854746  0.23469696  0.66828429    -0.27700
H1564       H  0.03121794  0.24073076  0.66999569     0.08500
H1565       H  0.10368063  0.32287350  0.65835726     0.26900
H1566       H  0.02686170  0.33314539  0.70930484     0.21700
H1567       H  0.99758921  0.21792268  0.66487180     0.27000
H1568       H  0.04101157  0.24515897  0.71133147     0.15900
C1569       C  0.08292584  0.57166976  0.43220496    -0.11400
C1570       C  0.07561222  0.58681892  0.41825230     0.15100
C1571       C  0.09359347  0.59769418  0.40728916     0.02000
C1572       C  0.11809523  0.59067207  0.40903979    -0.15800
C1573       C  0.12505664  0.57337054  0.42176883    -0.10600
C1574       C  0.10743386  0.56518919  0.43428539     0.08700
C1575       C  0.04925448  0.58748171  0.41395032     0.09800
S1576       S  0.08622205  0.61920619  0.39004990    -0.24900
H1577       H  0.13150746  0.59764568  0.39966693     0.20000
S1578       S  0.11485392  0.54598169  0.45291145    -0.30600
H1579       H  0.06927045  0.56383116  0.44100358     0.10300
C1580       C  0.04032737  0.57460094  0.39890915     0.03600
C1581       C  0.01510726  0.57182753  0.39676395    -0.12900
C1582       C  0.99849145  0.58178426  0.40928146    -0.08600
C1583       C  0.00739906  0.59537007  0.42406452     0.07000
C1584       C  0.03266676  0.59814311  0.42620202    -0.13700
S1585       S  0.06091328  0.55996222  0.38308008    -0.30600
H1586       H  0.00829229  0.56117464  0.38554831     0.11300
S1587       S  0.98767419  0.60776733  0.44140986    -0.27700
H1588       H  0.03949152  0.60770366  0.43792645     0.08500
H1589       H  0.13807987  0.55623298  0.45569952     0.26900
H1590       H  0.04364735  0.55762874  0.36938812     0.21700
H1591       H  0.97227550  0.58731297  0.44216408     0.27000
H1592       H  0.06341984  0.62639668  0.39720312     0.15900
C1593       C  0.88884052  0.55662568  0.52101070    -0.11400
C1594       C  0.89583299  0.53324508  0.51503963     0.15100
C1595       C  0.90233149  0.51564026  0.52782540     0.02000
C1596       C  0.90308927  0.52220844  0.54607159    -0.15800
C1597       C  0.89754265  0.54608951  0.55195836    -0.10600
C1598       C  0.88935202  0.56315680  0.53920937     0.08700
C1599       C  0.89965011  0.52931683  0.49544184     0.09800
S1600       S  0.91087617  0.48485622  0.52162016    -0.24900
H1601       H  0.90919913  0.50883769  0.55562439     0.20000
S1602       S  0.87961967  0.59370083  0.54512723    -0.30600
H1603       H  0.88375698  0.57022870  0.51130194     0.10300
C1604       C  0.88018515  0.52979699  0.48316731     0.03600
C1605       C  0.88527789  0.53071387  0.46464264    -0.12900
C1606       C  0.90949512  0.53142264  0.45819411    -0.08600
C1607       C  0.92881932  0.52885800  0.47051869     0.07000
C1608       C  0.92370779  0.52802886  0.48890209    -0.13700
S1609       S  0.84894556  0.53016016  0.49115825    -0.30600
H1610       H  0.87041442  0.53260282  0.45527859     0.11300
S1611       S  0.96050145  0.52731076  0.46370368    -0.27700
H1612       H  0.93871881  0.52738429  0.49826256     0.08500
H1613       H  0.86831799  0.58704800  0.56134482     0.26900
H1614       H  0.83790848  0.52981178  0.47420413     0.21700
H1615       H  0.95606077  0.51582953  0.44707881     0.27000
H1616       H  0.89768983  0.48396306  0.50554472     0.15900
C1617       C  0.18621554  0.50715944  0.53222826    -0.11400
C1618       C  0.20899466  0.49976556  0.52523855     0.15100
C1619       C  0.22856368  0.49594615  0.53718484     0.02000
C1620       C  0.22522079  0.50084539  0.55559079    -0.15800
C1621       C  0.20271588  0.50945836  0.56232479    -0.10600
C1622       C  0.18282050  0.51177189  0.55054382     0.08700
C1623       C  0.21220786  0.49977254  0.50540656     0.09800
S1624       S  0.25837646  0.48577017  0.52970604    -0.24900
H1625       H  0.24056370  0.49901769  0.56455799     0.20000
S1626       S  0.15276083  0.52132133  0.55801171    -0.30600
H1627       H  0.17112722  0.51028161  0.52322435     0.10300
C1628       C  0.19784627  0.48501698  0.49398781     0.03600
C1629       C  0.19760317  0.48955082  0.47546727    -0.12900
C1630       C  0.21155471  0.50848803  0.46816901    -0.08600
C1631       C  0.22782834  0.52144591  0.47940262     0.07000
C1632       C  0.22764569  0.51728274  0.49784887    -0.13700
S1633       S  0.17924520  0.46094958  0.50308527    -0.30600
H1634       H  0.18539675  0.47936228  0.46686018     0.11300
S1635       S  0.24901369  0.54384159  0.47106748    -0.27700
H1636       H  0.23899521  0.52844951  0.50647302     0.08500
H1637       H  0.15439688  0.51141455  0.57525234     0.26900
H1638       H  0.17116758  0.45148145  0.48656522     0.21700
H1639       H  0.25224854  0.53271287  0.45410090     0.27000
H1640       H  0.25036791  0.47366900  0.51411303     0.15900
C1641       C  0.08899759  0.60182853  0.61208505    -0.11400
C1642       C  0.07218616  0.58534065  0.60464777     0.15100
C1643       C  0.08080402  0.56294109  0.59739267     0.02000
C1644       C  0.10554303  0.55711158  0.59844965    -0.15800
C1645       C  0.12215982  0.57270626  0.60704031    -0.10600
C1646       C  0.11387396  0.59579579  0.61331757     0.08700
C1647       C  0.04567978  0.59107699  0.60500482     0.09800
S1648       S  0.06097381  0.53993467  0.58797563    -0.24900
H1649       H  0.11162137  0.53949742  0.59331540     0.20000
S1650       S  0.13363139  0.61755691  0.62405730    -0.30600
H1651       H  0.08258788  0.61924876  0.61734564     0.10300
C1652       C  0.03229064  0.59228340  0.62127825     0.03600
C1653       C  0.00666919  0.59163677  0.62084267    -0.12900
C1654       C  0.99428773  0.58953224  0.60451792    -0.08600
C1655       C  0.00763605  0.59072194  0.58828234     0.07000
C1656       C  0.03313397  0.59169295  0.58870283    -0.13700
S1657       S  0.04757680  0.59230528  0.64263971    -0.30600
H1658       H  0.99633601  0.59089713  0.63327017     0.11300
S1659       S  0.99327164  0.59018519  0.56662775    -0.27700
H1660       H  0.04335883  0.59136953  0.57619402     0.08500
H1661       H  0.14979449  0.61850700  0.60931149     0.26900
H1662       H  0.02663188  0.59633479  0.65333755     0.21700
H1663       H  0.97148451  0.60166338  0.57237394     0.27000
H1664       H  0.04193227  0.54340367  0.60055546     0.15900
C1665       C  0.86721650  0.41555293  0.09541127    -0.11400
C1666       C  0.84358788  0.41230131  0.10238595     0.15100
C1667       C  0.82974026  0.43287122  0.10781477     0.02000
C1668       C  0.84028314  0.45604269  0.10707336    -0.15800
C1669       C  0.86431803  0.45926362  0.10073143    -0.10600
C1670       C  0.87763566  0.43873599  0.09422745     0.08700
C1671       C  0.83533604  0.38700495  0.10538722     0.09800
S1672       S  0.79866915  0.43071791  0.11586097    -0.24900
H1673       H  0.82971752  0.47163625  0.11180410     0.20000
S1674       S  0.90771060  0.44150506  0.08416507    -0.30600
H1675       H  0.87779215  0.39965533  0.09134246     0.10300
C1676       C  0.83467464  0.36984078  0.09117835     0.03600
C1677       C  0.83342239  0.34498125  0.09504385    -0.12900
C1678       C  0.83194776  0.33703362  0.11279817    -0.08600
C1679       C  0.82978089  0.35435735  0.12687360     0.07000
C1680       C  0.83170992  0.37918237  0.12304580    -0.13700
S1681       S  0.83635088  0.37951464  0.06816125    -0.30600
H1682       H  0.83465682  0.33160754  0.08424506     0.11300
S1683       S  0.82648525  0.34591970  0.14999408    -0.27700
H1684       H  0.83203039  0.39234638  0.13401026     0.08500
H1685       H  0.91111991  0.41675508  0.07956342     0.26900
H1686       H  0.83003427  0.35688506  0.06042310     0.21700
H1687       H  0.84364794  0.32678196  0.14914599     0.27000
H1688       H  0.79292772  0.40933239  0.10619516     0.15900
C1689       C  0.92044660  0.56379018  0.98184665    -0.11400
C1690       C  0.93031369  0.54308617  0.98995534     0.15100
C1691       C  0.93855637  0.52354407  0.97889895     0.02000
C1692       C  0.93440376  0.52401142  0.96038797    -0.15800
C1693       C  0.92287515  0.54398916  0.95234119    -0.10600
C1694       C  0.91715634  0.56472606  0.96324356     0.08700
C1695       C  0.92784789  0.54063677  0.00977965     0.09800
S1696       S  0.95357028  0.49703999  0.98775790    -0.24900
H1697       H  0.93949337  0.50819947  0.95229460     0.20000
S1698       S  0.90359549  0.59215247  0.95470310    -0.30600
H1699       H  0.91415692  0.57894008  0.99018112     0.10300
C1700       C  0.94001699  0.55600543  0.02211473     0.03600
C1701       C  0.93550074  0.55356982  0.04067777    -0.12900
C1702       C  0.91892093  0.53612938  0.04715843    -0.08600
C1703       C  0.90755136  0.52020717  0.03465914     0.07000
C1704       C  0.91182742  0.52290096  0.01629441    -0.13700
S1705       S  0.96143393  0.57848915  0.01421887    -0.30600
H1706       H  0.94439278  0.56568164  0.05012763     0.11300
S1707       S  0.88786932  0.49547004  0.04116676    -0.27700
H1708       H  0.90251487  0.51095796  0.00691458     0.08500
H1709       H  0.92190268  0.59518062  0.94156037     0.26900
H1710       H  0.96721977  0.58838559  0.03113597     0.21700
H1711       H  0.90173747  0.48905022  0.05618684     0.27000
H1712       H  0.96298492  0.50888303  0.00302602     0.15900
C1713       C  0.90197542  0.25370690  0.04225738    -0.11400
C1714       C  0.88512825  0.24405350  0.03003554     0.15100
C1715       C  0.86385196  0.23262075  0.03665429     0.02000
C1716       C  0.85910274  0.23255678  0.05513360    -0.15800
C1717       C  0.87513131  0.24359019  0.06739592    -0.10600
C1718       C  0.89711421  0.25386401  0.06077908     0.08700
C1719       C  0.88771130  0.25006572  0.01074146     0.09800
S1720       S  0.84097431  0.21967441  0.02213250    -0.24900
H1721       H  0.84220351  0.22460673  0.05992651     0.20000
S1722       S  0.91828308  0.26999979  0.07492280    -0.30600
H1723       H  0.91812360  0.26284731  0.03725014     0.10300
C1724       C  0.87599210  0.27080618  0.00390018     0.03600
C1725       C  0.87598660  0.27466721  0.98536226    -0.12900
C1726       C  0.88733562  0.25816344  0.97324847    -0.08600
C1727       C  0.90016208  0.23795134  0.98032321     0.07000
C1728       C  0.90045854  0.23433194  0.99895365    -0.13700
S1729       S  0.86046586  0.29212310  0.01883773    -0.30600
H1730       H  0.86651349  0.29043994  0.98025015     0.11300
S1731       S  0.91512567  0.21525927  0.96641945    -0.27700
H1732       H  0.90958913  0.21843036  0.00422422     0.08500
H1733       H  0.90009373  0.28442308  0.08336034     0.26900
H1734       H  0.85129098  0.30753595  0.00555114     0.21700
H1735       H  0.89435894  0.21095196  0.95588925     0.27000
H1736       H  0.85694816  0.21315107  0.00802227     0.15900
C1737       C  0.82777154  0.43424714  0.91552265    -0.11400
C1738       C  0.83266473  0.41890136  0.90077071     0.15100
C1739       C  0.83959843  0.42912857  0.88424410     0.02000
C1740       C  0.84482900  0.45406050  0.88349941    -0.15800
C1741       C  0.84314587  0.46881739  0.89898093    -0.10600
C1742       C  0.83269605  0.45917843  0.91473162     0.08700
C1743       C  0.83710722  0.39291890  0.90436176     0.09800
S1744       S  0.84514193  0.41072894  0.86441008    -0.24900
H1745       H  0.85242253  0.46139745  0.87124685     0.20000
S1746       S  0.82680021  0.47746715  0.93457944    -0.30600
H1747       H  0.82207785  0.42646154  0.92815768     0.10300
C1748       C  0.86086179  0.38508412  0.90855569     0.03600
C1749       C  0.86496307  0.36063685  0.91247664    -0.12900
C1750       C  0.84599115  0.34345926  0.91189338    -0.08600
C1751       C  0.82191658  0.35159593  0.90827400     0.07000
C1752       C  0.81776930  0.37625765  0.90449008    -0.13700
S1753       S  0.88615514  0.40625564  0.90885267    -0.30600
H1754       H  0.88337779  0.35478017  0.91544062     0.11300
S1755       S  0.79568419  0.33188459  0.90888160    -0.27700
H1756       H  0.79940853  0.38253344  0.90170415     0.08500
H1757       H  0.82324768  0.49944208  0.92540504     0.26900
H1758       H  0.90482724  0.38893252  0.91124780     0.21700
H1759       H  0.80301771  0.31990469  0.92451455     0.27000
H1760       H  0.82976216  0.39140489  0.86929386     0.15900
C1761       C  0.34800837  0.61240460  0.42528623    -0.11400
C1762       C  0.32915570  0.61777740  0.41335472     0.15100
C1763       C  0.32959461  0.63979399  0.40386572     0.02000
C1764       C  0.34818782  0.65650386  0.40711419    -0.15800
C1765       C  0.36649803  0.65181712  0.41967544    -0.10600
C1766       C  0.36656744  0.62929975  0.42870703     0.08700
C1767       C  0.30714356  0.60248878  0.41345800     0.09800
S1768       S  0.30612247  0.64827003  0.38827689    -0.24900
H1769       H  0.34805465  0.67360455  0.39999015     0.20000
S1770       S  0.38818445  0.62200783  0.44591990    -0.30600
H1771       H  0.34734102  0.59566824  0.43284069     0.10300
C1772       C  0.30548394  0.58082182  0.40324401     0.03600
C1773       C  0.28349516  0.56771657  0.40338300    -0.12900
C1774       C  0.26325119  0.57613145  0.41345592    -0.08600
C1775       C  0.26540455  0.59753770  0.42408113     0.07000
C1776       C  0.28718290  0.61057166  0.42378678    -0.13700
S1777       S  0.33101584  0.57050285  0.38962502    -0.30600
H1778       H  0.28188065  0.55118602  0.39538033     0.11300
S1779       S  0.24150880  0.60872207  0.43887875    -0.27700
H1780       H  0.28869685  0.62714232  0.43179317     0.08500
H1781       H  0.38702167  0.64515105  0.45428101     0.26900
H1782       H  0.31870373  0.55128193  0.38094558     0.21700
H1783       H  0.23408953  0.58551717  0.44455383     0.27000
H1784       H  0.29994022  0.62440047  0.38299391     0.15900
C1785       C  0.28566056  0.07583521  0.40142945    -0.11400
C1786       C  0.26586485  0.07896559  0.41332714     0.15100
C1787       C  0.26235879  0.06192253  0.42717330     0.02000
C1788       C  0.27869473  0.04239407  0.42885382    -0.15800
C1789       C  0.29892844  0.03970212  0.41730799    -0.10600
C1790       C  0.30214370  0.05645864  0.40323287     0.08700
C1791       C  0.24878529  0.09969752  0.41074559     0.09800
S1792       S  0.23777248  0.06433231  0.44339279    -0.24900
H1793       H  0.27601422  0.02961752  0.43964937     0.20000
S1794       S  0.32615465  0.05350735  0.38662594    -0.30600
H1795       H  0.28810223  0.08844677  0.39050127     0.10300
C1796       C  0.25640876  0.12411215  0.41277025     0.03600
C1797       C  0.23905787  0.14295385  0.41199443    -0.12900
C1798       C  0.21417081  0.13804354  0.40908436    -0.08600
C1799       C  0.20702802  0.11360357  0.40564198     0.07000
C1800       C  0.22430047  0.09480868  0.40671663    -0.13700
S1801       S  0.28791272  0.13135064  0.41750280    -0.30600
H1802       H  0.24483471  0.16155384  0.41441374     0.11300
S1803       S  0.17640209  0.10496627  0.39965531    -0.27700
H1804       H  0.21857070  0.07610540  0.40456017     0.08500
H1805       H  0.32514101  0.02789279  0.38548355     0.26900
H1806       H  0.28564766  0.15682247  0.41612395     0.21700
H1807       H  0.17345270  0.12416367  0.38751839     0.27000
H1808       H  0.23675522  0.08996111  0.44386318     0.15900
C1809       C  0.34390086  0.86522128  0.44151994    -0.11400
C1810       C  0.34607566  0.85315810  0.42492059     0.15100
C1811       C  0.34068506  0.86577593  0.40904924     0.02000
C1812       C  0.33535730  0.89075861  0.41005486    -0.15800
C1813       C  0.33548983  0.90326112  0.42657213    -0.10600
C1814       C  0.33868925  0.89013480  0.44250871     0.08700
C1815       C  0.35724190  0.82864334  0.42466143     0.09800
S1816       S  0.34258343  0.85164888  0.38710758    -0.24900
H1817       H  0.33317744  0.90084764  0.39777171     0.20000
S1818       S  0.33820682  0.90460012  0.46437908    -0.30600
H1819       H  0.34780217  0.85548528  0.45372290     0.10300
C1820       C  0.38239084  0.82554114  0.42117999     0.03600
C1821       C  0.39283297  0.80227775  0.42246473    -0.12900
C1822       C  0.37866323  0.78186545  0.42707686    -0.08600
C1823       C  0.35322463  0.78520524  0.43023935     0.07000
C1824       C  0.34296814  0.80854986  0.42925568    -0.13700
S1825       S  0.40135567  0.85141157  0.41574124    -0.30600
H1826       H  0.41221983  0.80005760  0.41991175     0.11300
S1827       S  0.33277273  0.76084334  0.43599497    -0.27700
H1828       H  0.32365412  0.81111295  0.43207539     0.08500
H1829       H  0.32337337  0.92444455  0.45959993     0.26900
H1830       H  0.42332911  0.83838160  0.41317088     0.21700
H1831       H  0.33743670  0.74790744  0.41989411     0.27000
H1832       H  0.33926651  0.82749956  0.39266541     0.15900
C1833       C  0.34651437  0.61555339  0.64138210    -0.11400
C1834       C  0.32426064  0.62082117  0.63306604     0.15100
C1835       C  0.32077525  0.64375778  0.62516246     0.02000
C1836       C  0.33911921  0.66116977  0.62624965    -0.15800
C1837       C  0.36130308  0.65634930  0.63484851    -0.10600
C1838       C  0.36506489  0.63308153  0.64242442     0.08700
C1839       C  0.30415120  0.60302032  0.63359293     0.09800
S1840       S  0.29319468  0.65212249  0.61360189    -0.24900
H1841       H  0.33598677  0.67870349  0.62012855     0.20000
S1842       S  0.39230572  0.62496111  0.65435384    -0.30600
H1843       H  0.34911872  0.59797934  0.64756841     0.10300
C1844       C  0.30452638  0.58173109  0.62282475     0.03600
C1845       C  0.28294507  0.56833235  0.62074330    -0.12900
C1846       C  0.26117598  0.57586646  0.62929434    -0.08600
C1847       C  0.26162583  0.59572952  0.64153479     0.07000
C1848       C  0.28302599  0.60921213  0.64341743    -0.13700
S1849       S  0.33180746  0.57273877  0.61061737    -0.30600
H1850       H  0.28268613  0.55279138  0.61163444     0.11300
S1851       S  0.23562218  0.60476321  0.65512049    -0.27700
H1852       H  0.28299531  0.62523130  0.65209565     0.08500
H1853       H  0.39278786  0.64675696  0.66451631     0.26900
H1854       H  0.32317862  0.54988029  0.60473590     0.21700
H1855       H  0.22678713  0.58092327  0.65741073     0.27000
H1856       H  0.28807127  0.62865266  0.60684731     0.15900
C1857       C  0.44951651  0.72663624  0.55116462    -0.11400
C1858       C  0.44831282  0.70316118  0.54356134     0.15100
C1859       C  0.44698580  0.68289149  0.55500795     0.02000
C1860       C  0.44488339  0.68666882  0.57359899    -0.15800
C1861       C  0.44418145  0.71031024  0.58123034    -0.10600
C1862       C  0.44777359  0.73044634  0.56975163     0.08700
C1863       C  0.44511396  0.70093691  0.52383075     0.09800
S1864       S  0.44620516  0.65185387  0.54668169    -0.24900
H1865       H  0.44245681  0.67093824  0.58205677     0.20000
S1866       S  0.44961635  0.76154373  0.57772670    -0.30600
H1867       H  0.45085526  0.74225962  0.54246432     0.10300
C1868       C  0.42183170  0.69660872  0.51657477     0.03600
C1869       C  0.41865998  0.69737963  0.49798134    -0.12900
C1870       C  0.43812936  0.70271395  0.48622616    -0.08600
C1871       C  0.46165604  0.70644628  0.49353959     0.07000
C1872       C  0.46487206  0.70544276  0.51220412    -0.13700
S1873       S  0.39574965  0.69136120  0.53105398    -0.30600
H1874       H  0.40063184  0.69425143  0.49257313     0.11300
S1875       S  0.48790796  0.71400070  0.48004280    -0.27700
H1876       H  0.48275256  0.70901468  0.51776986     0.08500
H1877       H  0.46369898  0.75575067  0.59278077     0.26900
H1878       H  0.37813954  0.68942055  0.51750174     0.21700
H1879       H  0.47557477  0.73194018  0.47026076     0.27000
H1880       H  0.45781066  0.65625752  0.53017183     0.15900
C1881       C  0.28336313  0.06937763  0.64037068    -0.11400
C1882       C  0.28977836  0.08923611  0.62969199     0.15100
C1883       C  0.31298645  0.08970640  0.62131118     0.02000
C1884       C  0.32896690  0.07003977  0.62343986    -0.15800
C1885       C  0.32212412  0.04961799  0.63346284    -0.10600
C1886       C  0.29929655  0.04968851  0.64245826     0.08700
C1887       C  0.27195585  0.10929825  0.62792487     0.09800
S1888       S  0.32296090  0.11435680  0.60727370    -0.24900
H1889       H  0.34647142  0.07022171  0.61651361     0.20000
S1890       S  0.28976276  0.02574538  0.65725319    -0.30600
H1891       H  0.26579231  0.06931424  0.64721226     0.10300
C1892       C  0.24986882  0.10579004  0.61871818     0.03600
C1893       C  0.23294138  0.12494890  0.61799898    -0.12900
C1894       C  0.23767175  0.14760681  0.62624634    -0.08600
C1895       C  0.25977431  0.15092014  0.63564456     0.07000
C1896       C  0.27676322  0.13183872  0.63620011    -0.13700
S1897       S  0.24356516  0.07715868  0.60741352    -0.30600
H1898       H  0.21612281  0.12241788  0.61070091     0.11300
S1899       S  0.26684395  0.17840583  0.64802846    -0.27700
H1900       H  0.29359625  0.13433456  0.64352167     0.08500
H1901       H  0.31323236  0.02147245  0.66413149     0.26900
H1902       H  0.22052562  0.08366435  0.60073036     0.21700
H1903       H  0.24295305  0.18183238  0.65476885     0.27000
H1904       H  0.29971101  0.12039843  0.60077805     0.15900
C1905       C  0.37862025  0.01787905  0.54530163    -0.11400
C1906       C  0.39297188  0.00042262  0.53613663     0.15100
C1907       C  0.40812857  0.98474834  0.54610293     0.02000
C1908       C  0.40667202  0.98518247  0.56489867    -0.15800
C1909       C  0.39059091  0.00115614  0.57397922    -0.10600
C1910       C  0.37740944  0.01852617  0.56405939     0.08700
C1911       C  0.38877072  0.99672378  0.51661984     0.09800
S1912       S  0.42834088  0.96267390  0.53559351    -0.24900
H1913       H  0.41700440  0.97193264  0.57240536     0.20000
S1914       S  0.35801963  0.04136164  0.57458153    -0.30600
H1915       H  0.36727968  0.03026691  0.53777737     0.10300
C1916       C  0.37492751  0.97675783  0.51037140     0.03600
C1917       C  0.36906982  0.97492312  0.49215552    -0.12900
C1918       C  0.37658799  0.99264407  0.47984238    -0.08600
C1919       C  0.39074714  0.01251776  0.48610350     0.07000
C1920       C  0.39671719  0.01429684  0.50436757    -0.13700
S1921       S  0.36338956  0.95424127  0.52573961    -0.30600
H1922       H  0.35817639  0.95968953  0.48750657     0.11300
S1923       S  0.40037957  0.03692869  0.47179767    -0.27700
H1924       H  0.40703393  0.02986288  0.50917029     0.08500
H1925       H  0.37094607  0.04265728  0.59077438     0.26900
H1926       H  0.35560947  0.93733534  0.51266071     0.21700
H1927       H  0.37807088  0.03847597  0.46264781     0.27000
H1928       H  0.43117029  0.97507995  0.51934819     0.15900
C1929       C  0.35552305  0.82170384  0.65225297    -0.11400
C1930       C  0.34906858  0.83130412  0.63563155     0.15100
C1931       C  0.34842100  0.81569312  0.62049455     0.02000
C1932       C  0.35758217  0.79197978  0.62165798    -0.15800
C1933       C  0.36686107  0.78308376  0.63782400    -0.10600
C1934       C  0.36422653  0.79763888  0.65361157     0.08700
C1935       C  0.34969324  0.85811504  0.63343141     0.09800
S1936       S  0.33790814  0.82576752  0.59897529    -0.24900
H1937       H  0.35843929  0.78080037  0.60959981     0.20000
S1938       S  0.37392681  0.78707677  0.67529067    -0.30600
H1939       H  0.35586993  0.83375559  0.66384722     0.10300
C1940       C  0.33243630  0.87415535  0.64132235     0.03600
C1941       C  0.33532164  0.89948553  0.63926322    -0.12900
C1942       C  0.35514283  0.90899001  0.62942249    -0.08600
C1943       C  0.37188674  0.89258832  0.62102050     0.07000
C1944       C  0.36910954  0.86753670  0.62339026    -0.13700
S1945       S  0.30676117  0.86235537  0.65378706    -0.30600
H1946       H  0.32244117  0.91191317  0.64567820     0.11300
S1947       S  0.39656485  0.90289676  0.60670351    -0.27700
H1948       H  0.38225983  0.85499304  0.61741117     0.08500
H1949       H  0.36430378  0.80669938  0.68547742     0.26900
H1950       H  0.29506370  0.88492093  0.65693343     0.21700
H1951       H  0.40610286  0.87984300  0.60190066     0.27000
H1952       H  0.32278182  0.84458075  0.60579514     0.15900
C1953       C  0.44339744  0.83655777  0.18433505    -0.11400
C1954       C  0.41787349  0.83905838  0.18485260     0.15100
C1955       C  0.40323600  0.81825505  0.18718805     0.02000
C1956       C  0.41436368  0.79583409  0.19055823    -0.15800
C1957       C  0.43991645  0.79362968  0.19155272    -0.10600
C1958       C  0.45462089  0.81401941  0.18765879     0.08700
C1959       C  0.40759883  0.86381273  0.18740129     0.09800
S1960       S  0.37032622  0.81971585  0.18782198    -0.24900
H1961       H  0.40294717  0.78016041  0.19317611     0.20000
S1962       S  0.48749279  0.81248239  0.18906257    -0.30600
H1963       H  0.45449286  0.85272194  0.18283529     0.10300
C1964       C  0.40592772  0.87402104  0.20475656     0.03600
C1965       C  0.39806729  0.89811972  0.20701555    -0.12900
C1966       C  0.39118939  0.91233170  0.19230862    -0.08600
C1967       C  0.39111575  0.90130391  0.17501865     0.07000
C1968       C  0.40003992  0.87742788  0.17267743    -0.13700
S1969       S  0.41486470  0.85664500  0.22407762    -0.30600
H1970       H  0.39867062  0.90623934  0.22027748     0.11300
S1971       S  0.37882516  0.91605068  0.15561966    -0.27700
H1972       H  0.40070773  0.86925449  0.15938492     0.08500
H1973       H  0.49216905  0.83513336  0.18111558     0.26900
H1974       H  0.40720021  0.87376417  0.23718826     0.21700
H1975       H  0.36165374  0.93028037  0.16527964     0.27000
H1976       H  0.36824701  0.83903446  0.17574833     0.15900
C1977       C  0.60045345  0.79947090  0.20226514    -0.11400
C1978       C  0.59170157  0.77583168  0.20525205     0.15100
C1979       C  0.60819526  0.75745379  0.21047232     0.02000
C1980       C  0.63289396  0.76311198  0.21269638    -0.15800
C1981       C  0.64167922  0.78685177  0.21007101    -0.10600
C1982       C  0.62523684  0.80522425  0.20469925     0.08700
C1983       C  0.56513142  0.77109971  0.20376606     0.09800
S1984       S  0.59893250  0.72642378  0.21440548    -0.24900
H1985       H  0.64539826  0.74885724  0.21672382     0.20000
S1986       S  0.63520182  0.83628680  0.20198150    -0.30600
H1987       H  0.58765659  0.81350590  0.19836667     0.10300
C1988       C  0.54892256  0.77844321  0.21758422     0.03600
C1989       C  0.52424392  0.77194267  0.21658191    -0.12900
C1990       C  0.51531687  0.75792048  0.20215181    -0.08600
C1991       C  0.53154906  0.75091316  0.18815843     0.07000
C1992       C  0.55619392  0.75781699  0.18901122    -0.13700
S1993       S  0.55991927  0.79496530  0.23700455    -0.30600
H1994       H  0.51183313  0.77740486  0.22728886     0.11300
S1995       S  0.52245544  0.73180304  0.16958459    -0.27700
H1996       H  0.56867378  0.75199033  0.17846211     0.08500
H1997       H  0.61192502  0.84668752  0.19967735     0.26900
H1998       H  0.53711925  0.79808679  0.24560606     0.21700
H1999       H  0.50753119  0.71653919  0.17994591     0.27000
H2000       H  0.57571432  0.73210620  0.22153384     0.15900
C2001       C  0.68895541  0.88171045  0.18470110    -0.11400
C2002       C  0.67978404  0.89684680  0.19851695     0.15100
C2003       C  0.68009929  0.88864536  0.21633292     0.02000
C2004       C  0.68772674  0.86498298  0.21981369    -0.15800
C2005       C  0.69573651  0.84917119  0.20599238    -0.10600
C2006       C  0.69735248  0.85807072  0.18831001     0.08700
C2007       C  0.66785287  0.92021578  0.19429783     0.09800
S2008       S  0.66962225  0.90701353  0.23517194    -0.24900
H2009       H  0.68626528  0.85857670  0.23342537     0.20000
S2010       S  0.71018364  0.84046715  0.16993370    -0.30600
H2011       H  0.68917750  0.88819425  0.17104627     0.10300
C2012       C  0.68153204  0.94151464  0.19138423     0.03600
C2013       C  0.66968581  0.96423874  0.19222357    -0.12900
C2014       C  0.64458643  0.96587008  0.19610206    -0.08600
C2015       C  0.63070175  0.94446770  0.19786375     0.07000
C2016       C  0.64243396  0.92178886  0.19660378    -0.13700
S2017       S  0.71431607  0.93992572  0.18867899    -0.30600
H2018       H  0.68022187  0.98085173  0.19121582     0.11300
S2019       S  0.59866052  0.94599738  0.20377679    -0.27700
H2020       H  0.63218160  0.90524897  0.19891289     0.08500
H2021       H  0.72587901  0.82647840  0.18055215     0.26900
H2022       H  0.71791953  0.96489909  0.18551556     0.21700
H2023       H  0.59514408  0.92082157  0.20603586     0.27000
H2024       H  0.67696021  0.92955002  0.22821310     0.15900
C2025       C  0.48473952  0.96331412  0.18685339    -0.11400
C2026       C  0.49298455  0.98746442  0.18815980     0.15100
C2027       C  0.47568811  0.00652560  0.19006276     0.02000
C2028       C  0.45085339  0.00094750  0.19183556    -0.15800
C2029       C  0.44269220  0.97669846  0.19172501    -0.10600
C2030       C  0.45990271  0.95772888  0.18886181     0.08700
C2031       C  0.51937653  0.99176698  0.19122345     0.09800
S2032       S  0.48436731  0.03810465  0.19210917    -0.24900
H2033       H  0.43780389  0.01566341  0.19395154     0.20000
S2034       S  0.45182623  0.92607412  0.18992615    -0.30600
H2035       H  0.49797084  0.94858316  0.18573674     0.10300
C2036       C  0.52940320  0.98795466  0.20825816     0.03600
C2037       C  0.55406699  0.99312083  0.21119670    -0.12900
C2038       C  0.56901509  0.00326470  0.19777231    -0.08600
C2039       C  0.55875505  0.00700940  0.18062937     0.07000
C2040       C  0.53438550  0.00044128  0.17742021    -0.13700
S2041       S  0.51059368  0.97707580  0.22650363    -0.30600
H2042       H  0.56168781  0.98938185  0.22420363     0.11300
S2043       S  0.57463939  0.02204924  0.16277914    -0.27700
H2044       H  0.52664716  0.00332077  0.16431963     0.08500
H2045       H  0.43863135  0.92931273  0.20604541     0.26900
H2046       H  0.52828401  0.97917454  0.23999171     0.21700
H2047       H  0.58466211  0.03992599  0.17415460     0.27000
H2048       H  0.50256893  0.03699993  0.17875491     0.15900
C2049       C  0.34787811  0.97726007  0.26005514    -0.11400
C2050       C  0.36323332  0.99396995  0.26870932     0.15100
C2051       C  0.37699145  0.01018115  0.25822071     0.02000
C2052       C  0.37875643  0.00626127  0.23968435    -0.15800
C2053       C  0.36748542  0.98600542  0.23135951    -0.10600
C2054       C  0.34905308  0.97388745  0.24139076     0.08700
C2055       C  0.37024391  0.98917297  0.28747543     0.09800
S2056       S  0.39482661  0.03438423  0.26805329    -0.24900
H2057       H  0.39063207  0.01802047  0.23201086     0.20000
S2058       S  0.32608735  0.95465823  0.23139489    -0.30600
H2059       H  0.33604647  0.96570483  0.26796233     0.10300
C2060       C  0.35646640  0.99681183  0.30250629     0.03600
C2061       C  0.36447665  0.99077804  0.31981162    -0.12900
C2062       C  0.38592247  0.97672906  0.32247428    -0.08600
C2063       C  0.39942665  0.96908868  0.30692765     0.07000
C2064       C  0.39148759  0.97555820  0.28989520    -0.13700
S2065       S  0.32901052  0.01460229  0.29958971    -0.30600
H2066       H  0.35375898  0.99732283  0.33103112     0.11300
S2067       S  0.42670215  0.95046185  0.30809474    -0.27700
H2068       H  0.40175543  0.96964729  0.27812396     0.08500
H2069       H  0.32786666  0.96493763  0.21428698     0.26900
H2070       H  0.32237053  0.01628094  0.31782221     0.21700
H2071       H  0.43204831  0.94876726  0.28965130     0.27000
H2072       H  0.38068780  0.03661149  0.28382719     0.15900
C2073       C  0.46187801  0.69182589  0.29838825    -0.11400
C2074       C  0.44000444  0.70119008  0.29156168     0.15100
C2075       C  0.42054045  0.70608831  0.30366671     0.02000
C2076       C  0.42533830  0.70745936  0.32206480    -0.15800
C2077       C  0.44914886  0.70364639  0.32857891    -0.10600
C2078       C  0.46601758  0.69165841  0.31687826     0.08700
C2079       C  0.43944912  0.70885983  0.27248831     0.09800
S2080       S  0.38994164  0.71281542  0.29635829    -0.24900
H2081       H  0.41108587  0.71408013  0.33107805     0.20000
S2082       S  0.49125382  0.67348829  0.32458234    -0.30600
H2083       H  0.47614621  0.68542122  0.28930627     0.10300
C2084       C  0.43624579  0.73358966  0.26812930     0.03600
C2085       C  0.43860312  0.74083581  0.25031197    -0.12900
C2086       C  0.44486645  0.72434696  0.23626484    -0.08600
C2087       C  0.44962902  0.69967491  0.24102669     0.07000
C2088       C  0.44586663  0.69217959  0.25882728    -0.13700
S2089       S  0.43266332  0.75688908  0.28541041    -0.30600
H2090       H  0.43787738  0.76015510  0.24788521     0.11300
S2091       S  0.46317025  0.67793264  0.22537966    -0.27700
H2092       H  0.44932305  0.67341374  0.26241373     0.08500
H2093       H  0.48182950  0.67093005  0.34206699     0.26900
H2094       H  0.42544432  0.77590957  0.27412750     0.21700
H2095       H  0.46624435  0.65857987  0.23734139     0.27000
H2096       H  0.39255123  0.70198321  0.27925429     0.15900
C2097       C  0.43960212  0.87552901  0.37240602    -0.11400
C2098       C  0.42372172  0.85814019  0.36507258     0.15100
C2099       C  0.40173098  0.86610250  0.35728430     0.02000
C2100       C  0.39626769  0.89104684  0.35697160    -0.15800
C2101       C  0.41302772  0.90871532  0.36300847    -0.10600
C2102       C  0.43513432  0.90063095  0.37081306     0.08700
C2103       C  0.43136196  0.83207244  0.36481558     0.09800
S2104       S  0.38072741  0.84562092  0.34631411    -0.24900
H2105       H  0.37918514  0.89674425  0.35107051     0.20000
S2106       S  0.45927477  0.92141216  0.37692690    -0.30600
H2107       H  0.45638335  0.86926974  0.37843361     0.10300
C2108       C  0.45290663  0.82441374  0.35571786     0.03600
C2109       C  0.45934972  0.79967370  0.35545762    -0.12900
C2110       C  0.44439635  0.78227299  0.36353399    -0.08600
C2111       C  0.42256085  0.78971492  0.37224111     0.07000
C2112       C  0.41660961  0.81458592  0.37321068    -0.13700
S2113       S  0.47156008  0.84577644  0.34346717    -0.30600
H2114       H  0.47580642  0.79365989  0.34849844     0.11300
S2115       S  0.40124514  0.76844226  0.38185859    -0.27700
H2116       H  0.39993444  0.82028312  0.38003393     0.08500
H2117       H  0.47563871  0.90417221  0.38385051     0.26900
H2118       H  0.48779596  0.82858569  0.33575339     0.21700
H2119       H  0.40628043  0.74879976  0.37012053     0.27000
H2120       H  0.39874894  0.82983130  0.33916852     0.15900
C2121       C  0.72168788  0.75023223  0.31340973    -0.11400
C2122       C  0.73357547  0.76977385  0.30521635     0.15100
C2123       C  0.74355933  0.78828937  0.31615555     0.02000
C2124       C  0.73702296  0.78965397  0.33429716    -0.15800
C2125       C  0.72069574  0.77273441  0.34183907    -0.10600
C2126       C  0.71622015  0.75094970  0.33180218     0.08700
C2127       C  0.72859833  0.77445318  0.28607058     0.09800
S2128       S  0.76249065  0.81210298  0.30717088    -0.24900
H2129       H  0.74365365  0.80489744  0.34219072     0.20000
S2130       S  0.70290284  0.72385829  0.34121265    -0.30600
H2131       H  0.71505462  0.73519386  0.30525871     0.10300
C2132       C  0.73805200  0.76021514  0.27178173     0.03600
C2133       C  0.73118326  0.76553106  0.25407114    -0.12900
C2134       C  0.71435657  0.78442920  0.25038816    -0.08600
C2135       C  0.70461402  0.79821790  0.26517086     0.07000
C2136       C  0.71218036  0.79326764  0.28253205    -0.13700
S2137       S  0.75893254  0.73549291  0.27614853    -0.30600
H2138       H  0.73874223  0.75448094  0.24332795     0.11300
S2139       S  0.68190012  0.82207523  0.26258554    -0.27700
H2140       H  0.70477524  0.80388154  0.29368635     0.08500
H2141       H  0.71177216  0.72786379  0.35857619     0.26900
H2142       H  0.76147316  0.72724902  0.25829380     0.21700
H2143       H  0.67491806  0.82445851  0.28071386     0.27000
H2144       H  0.76983391  0.79895940  0.29170203     0.15900
C2145       C  0.55729966  0.72869676  0.37358125    -0.11400
C2146       C  0.56316419  0.75325857  0.37659187     0.15100
C2147       C  0.54436426  0.77094655  0.37715015     0.02000
C2148       C  0.52035235  0.76395669  0.37359118    -0.15800
C2149       C  0.51461016  0.73955485  0.36975956    -0.10600
C2150       C  0.53318797  0.72159381  0.37046491     0.08700
C2151       C  0.58915370  0.76032031  0.37649012     0.09800
S2152       S  0.55006745  0.80278697  0.38174239    -0.24900
H2153       H  0.50616893  0.77778520  0.37333109     0.20000
S2154       S  0.52738229  0.68941240  0.36762410    -0.30600
H2155       H  0.57169707  0.71506238  0.37324163     0.10300
C2156       C  0.60500733  0.75469077  0.39061977     0.03600
C2157       C  0.62974973  0.76117646  0.38928757    -0.12900
C2158       C  0.63880305  0.77308388  0.37407586    -0.08600
C2159       C  0.62252331  0.77949477  0.36025237     0.07000
C2160       C  0.59806670  0.77270072  0.36153755    -0.13700
S2161       S  0.59369524  0.73947597  0.41031173    -0.30600
H2162       H  0.64221378  0.75645660  0.39988811     0.11300
S2163       S  0.63122113  0.79670735  0.34073891    -0.27700
H2164       H  0.58573531  0.77722044  0.35077842     0.08500
H2165       H  0.50368376  0.69005798  0.37507818     0.26900
H2166       H  0.61539121  0.74112539  0.42021995     0.21700
H2167       H  0.65062057  0.80950076  0.34855822     0.27000
H2168       H  0.57054519  0.79900201  0.39263078     0.15900
C2169       C  0.62706641  0.01889294  0.27490260    -0.11400
C2170       C  0.63689601  0.04123507  0.28027904     0.15100
C2171       C  0.64378028  0.05817878  0.26708414     0.02000
C2172       C  0.64079360  0.05220399  0.24878776    -0.15800
C2173       C  0.63068913  0.02968229  0.24324915    -0.10600
C2174       C  0.62339440  0.01303343  0.25684379     0.08700
C2175       C  0.63745828  0.04610968  0.29992187     0.09800
S2176       S  0.65536440  0.08805886  0.27265245    -0.24900
H2177       H  0.64610331  0.06557037  0.23902840     0.20000
S2178       S  0.60877550  0.98410971  0.25173703    -0.30600
H2179       H  0.62163824  0.00612227  0.28513582     0.10300
C2180       C  0.61596251  0.05272433  0.30923196     0.03600
C2181       C  0.61428002  0.04906299  0.32779608    -0.12900
C2182       C  0.63379105  0.03870011  0.33743188    -0.08600
C2183       C  0.65677638  0.03682384  0.32844706     0.07000
C2184       C  0.65808636  0.03942008  0.30970786    -0.13700
S2185       S  0.58999573  0.06425981  0.29717589    -0.30600
H2186       H  0.59734991  0.05379786  0.33439375     0.11300
S2187       S  0.68452476  0.03087932  0.34055862    -0.27700
H2188       H  0.67491276  0.03532626  0.30254108     0.08500
H2189       H  0.60255155  0.97764667  0.26936483     0.26900
H2190       H  0.57661832  0.07235353  0.31231941     0.21700
H2191       H  0.70033258  0.02933700  0.32561890     0.27000
H2192       H  0.66375071  0.08265058  0.28987149     0.15900
C2193       C  0.69096852  0.88239773  0.38611469    -0.11400
C2194       C  0.66653859  0.88887514  0.38277958     0.15100
C2195       C  0.64971221  0.87015798  0.37849047     0.02000
C2196       C  0.65734546  0.84576458  0.37855748    -0.15800
C2197       C  0.68196398  0.83954513  0.38091933    -0.10600
C2198       C  0.69896441  0.85813167  0.38480831     0.08700
C2199       C  0.65993212  0.91528221  0.38214859     0.09800
S2200       S  0.61906784  0.87604843  0.37087143    -0.24900
H2201       H  0.64425713  0.83163268  0.37536125     0.20000
S2202       S  0.73106658  0.85216331  0.38808229    -0.30600
H2203       H  0.70410054  0.89649225  0.38927650     0.10300
C2204       C  0.64052481  0.92566870  0.39227689     0.03600
C2205       C  0.63332494  0.94989247  0.38911136    -0.12900
C2206       C  0.64616360  0.96465803  0.37693878    -0.08600
C2207       C  0.66785505  0.95507430  0.36897166     0.07000
C2208       C  0.67374480  0.93039278  0.37100603    -0.13700
S2209       S  0.62564352  0.90855501  0.40976244    -0.30600
H2210       H  0.61759191  0.95718223  0.39619897     0.11300
S2211       S  0.68965437  0.97419353  0.35761836    -0.27700
H2212       H  0.68939475  0.92276402  0.36389925     0.08500
H2213       H  0.72847035  0.82805255  0.39394970     0.26900
H2214       H  0.61010294  0.92738819  0.41599287     0.21700
H2215       H  0.70850554  0.95682065  0.35567744     0.27000
H2216       H  0.62469732  0.89780181  0.36199006     0.15900
C2217       C  0.53332994  0.02044711  0.39029074    -0.11400
C2218       C  0.52607108  0.99621087  0.38752192     0.15100
C2219       C  0.54403124  0.97767299  0.38614542     0.02000
C2220       C  0.56867156  0.98406560  0.38523666    -0.15800
C2221       C  0.57579071  0.00854056  0.38605422    -0.10600
C2222       C  0.55806765  0.02677318  0.38970474     0.08700
C2223       C  0.50092452  0.99162178  0.38135371     0.09800
S2224       S  0.53645456  0.94582698  0.38344028    -0.24900
H2225       H  0.58209016  0.97002388  0.38223273     0.20000
S2226       S  0.56579049  0.05857320  0.39213535    -0.30600
H2227       H  0.51963532  0.03473134  0.39141824     0.10300
C2228       C  0.48021208  0.99380470  0.39259237     0.03600
C2229       C  0.45704829  0.98847546  0.38558931    -0.12900
C2230       C  0.45436623  0.98066810  0.36767699    -0.08600
C2231       C  0.47538120  0.97845534  0.35660834     0.07000
C2232       C  0.49813158  0.98461648  0.36340027    -0.13700
S2233       S  0.48335512  0.00248885  0.41585938    -0.30600
H2234       H  0.44100072  0.99011318  0.39412002     0.11300
S2235       S  0.47516195  0.96545807  0.33438107    -0.27700
H2236       H  0.51411675  0.98288540  0.35477305     0.08500
H2237       H  0.59002123  0.05464335  0.39755309     0.26900
H2238       H  0.45883647  0.99853510  0.42083318     0.21700
H2239       H  0.45922973  0.94644877  0.33904360     0.27000
H2240       H  0.51323358  0.94751467  0.39161089     0.15900
C2241       C  0.74267910  0.13205162  0.14198245    -0.11400
C2242       C  0.73752499  0.15652751  0.14602606     0.15100
C2243       C  0.71375530  0.16337355  0.15160052     0.02000
C2244       C  0.69540168  0.14574212  0.15216081    -0.15800
C2245       C  0.70031326  0.12122024  0.14760608    -0.10600
C2246       C  0.72455832  0.11430950  0.14292863     0.08700
C2247       C  0.75657700  0.17464947  0.14212669     0.09800
S2248       S  0.70561725  0.19433432  0.15769056    -0.24900
H2249       H  0.67703216  0.15134078  0.15596842     0.20000
S2250       S  0.73339805  0.08371989  0.13654562    -0.30600
H2251       H  0.76088967  0.12684589  0.13747333     0.10300
C2252       C  0.77888945  0.17498450  0.15139210     0.03600
C2253       C  0.79713629  0.19130656  0.14613961    -0.12900
C2254       C  0.79339742  0.20726657  0.13186546    -0.08600
C2255       C  0.77114954  0.20657115  0.12245288     0.07000
C2256       C  0.75292775  0.19044886  0.12779098    -0.13700
S2257       S  0.78380601  0.15518958  0.17019642    -0.30600
H2258       H  0.81415633  0.19206409  0.15341647     0.11300
S2259       S  0.76538145  0.22477276  0.10298062    -0.27700
H2260       H  0.73599639  0.18967158  0.12037488     0.08500
H2261       H  0.72716467  0.07426159  0.15341500     0.26900
H2262       H  0.80782825  0.16266585  0.17386871     0.21700
H2263       H  0.78947610  0.22344613  0.09626916     0.27000
H2264       H  0.72899182  0.20127767  0.16348817     0.15900
C2265       C  0.27273449  0.08588468  0.14387626    -0.11400
C2266       C  0.27476155  0.10460578  0.13132944     0.15100
C2267       C  0.29372405  0.10378787  0.11840317     0.02000
C2268       C  0.31096604  0.08506242  0.11887680    -0.15800
C2269       C  0.30942773  0.06663989  0.13168209    -0.10600
C2270       C  0.28990163  0.06689348  0.14420708     0.08700
C2271       C  0.25857525  0.12607556  0.13294908     0.09800
S2272       S  0.29711769  0.12630639  0.10113268    -0.24900
H2273       H  0.32572420  0.08481537  0.10908270     0.20000
S2274       S  0.28684083  0.04466066  0.16164257    -0.30600
H2275       H  0.25830216  0.08664224  0.15391286     0.10300
C2276       C  0.23367111  0.12495266  0.12851197     0.03600
C2277       C  0.22001169  0.14659628  0.12800547    -0.12900
C2278       C  0.23085093  0.16929667  0.13175889    -0.08600
C2279       C  0.25544154  0.16999038  0.13748612     0.07000
C2280       C  0.26899816  0.14843982  0.13785567    -0.13700
S2281       S  0.21977072  0.09627212  0.12230287    -0.30600
H2282       H  0.20112016  0.14591942  0.12384195     0.11300
S2283       S  0.27073802  0.19753049  0.14452748    -0.27700
H2284       H  0.28807231  0.14912601  0.14165006     0.08500
H2285       H  0.31200706  0.04286703  0.16508992     0.26900
H2286       H  0.19655451  0.10569973  0.11825481     0.21700
H2287       H  0.25044537  0.20689670  0.15412560     0.27000
H2288       H  0.27206577  0.13157951  0.09955464     0.15900
C2289       C  0.46795392  0.08254882  0.13786110    -0.11400
C2290       C  0.48820779  0.06717623  0.13542515     0.15100
C2291       C  0.48464857  0.04211841  0.13175426     0.02000
C2292       C  0.46094199  0.03307556  0.13039374    -0.15800
C2293       C  0.44048197  0.04836668  0.13272503    -0.10600
C2294       C  0.44416592  0.07355822  0.13625212     0.08700
C2295       C  0.51292574  0.07765006  0.13621025     0.09800
S2296       S  0.50948662  0.02069735  0.12840396    -0.24900
H2297       H  0.45851454  0.01375447  0.12773416     0.20000
S2298       S  0.41959865  0.09546811  0.13786237    -0.30600
H2299       H  0.47073655  0.10183475  0.14046914     0.10300
C2300       C  0.52712978  0.08029410  0.12053893     0.03600
C2301       C  0.55220962  0.08464265  0.12205361    -0.12900
C2302       C  0.56309481  0.08696333  0.13891827    -0.08600
C2303       C  0.54831816  0.08694767  0.15452329     0.07000
C2304       C  0.52334334  0.08211476  0.15301309    -0.13700
S2305       S  0.51365812  0.07631517  0.09869448    -0.30600
H2306       H  0.56367076  0.08455148  0.11014091     0.11300
S2307       S  0.56065540  0.09002352  0.17674357    -0.27700
H2308       H  0.51228070  0.08033708  0.16503860     0.08500
H2309       H  0.40731984  0.08620802  0.12275072     0.26900
H2310       H  0.53426991  0.08358006  0.08873231     0.21700
H2311       H  0.57925613  0.10634329  0.17199333     0.27000
H2312       H  0.52671879  0.03296130  0.13900065     0.15900
C2313       C  0.80079807  0.17285058  0.92905365    -0.11400
C2314       C  0.77878003  0.17628192  0.91998679     0.15100
C2315       C  0.77599658  0.19654129  0.90873040     0.02000
C2316       C  0.79519635  0.21307771  0.90695697    -0.15800
C2317       C  0.81701382  0.21018758  0.91646693    -0.10600
C2318       C  0.81978858  0.18972855  0.92765440     0.08700
C2319       C  0.75864899  0.15910317  0.92327143     0.09800
S2320       S  0.74853850  0.20236604  0.89624761    -0.24900
H2321       H  0.79286769  0.22865287  0.89833204     0.20000
S2322       S  0.84609937  0.18506085  0.94157689    -0.30600
H2323       H  0.80280892  0.15739291  0.93783482     0.10300
C2324       C  0.75517811  0.13838394  0.91229788     0.03600
C2325       C  0.73551054  0.12281611  0.91586609    -0.12900
C2326       C  0.71908481  0.12779238  0.93005511    -0.08600
C2327       C  0.72299646  0.14841893  0.94123595     0.07000
C2328       C  0.74271593  0.16380769  0.93771297    -0.13700
S2329       S  0.77554020  0.13208618  0.89361094    -0.30600
H2330       H  0.73251170  0.10704850  0.90728335     0.11300
S2331       S  0.70405008  0.15576263  0.96045933    -0.27700
H2332       H  0.74565905  0.17966305  0.94624836     0.08500
H2333       H  0.84688778  0.20938749  0.94782017     0.26900
H2334       H  0.76425191  0.11038555  0.88784288     0.21700
H2335       H  0.70063487  0.13140251  0.96557969     0.27000
H2336       H  0.73197251  0.19213731  0.90846104     0.15900
C2337       C  0.67722903  0.03670090  0.05914414    -0.11400
C2338       C  0.65958960  0.04618936  0.04753723     0.15100
C2339       C  0.63846824  0.05745846  0.05491961     0.02000
C2340       C  0.63591694  0.05981490  0.07349971    -0.15800
C2341       C  0.65387067  0.05127664  0.08522473    -0.10600
C2342       C  0.67473463  0.03932343  0.07787373     0.08700
C2343       C  0.66508666  0.04777257  0.02806093     0.09800
S2344       S  0.61484068  0.07103711  0.04149676    -0.24900
H2345       H  0.61978431  0.06895517  0.07887258     0.20000
S2346       S  0.69968001  0.02899933  0.09143801    -0.30600
H2347       H  0.69370787  0.02848788  0.05355195     0.10300
C2348       C  0.67556866  0.06908712  0.02110776     0.03600
C2349       C  0.67633850  0.07245641  0.00253732    -0.12900
C2350       C  0.66642889  0.05518425  0.99055336    -0.08600
C2351       C  0.65695745  0.03319932  0.99757821     0.07000
C2352       C  0.65684345  0.02955027  0.01620304    -0.13700
S2353       S  0.68692972  0.09262707  0.03599920    -0.30600
H2354       H  0.68399511  0.08914234  0.99735263     0.11300
S2355       S  0.64264984  0.01021896  0.98383092    -0.27700
H2356       H  0.64856407  0.01323950  0.02155667     0.08500
H2357       H  0.69956984  0.04965162  0.10283728     0.26900
H2358       H  0.69225908  0.10987904  0.02275624     0.21700
H2359       H  0.62726365  0.02694379  0.97523400     0.27000
H2360       H  0.61836732  0.05676380  0.02595805     0.15900
C2361       C  0.29145681  0.08721026  0.93419108    -0.11400
C2362       C  0.29472157  0.10654175  0.92233760     0.15100
C2363       C  0.31569379  0.10729071  0.91127151     0.02000
C2364       C  0.33348360  0.08922378  0.91280215    -0.15800
C2365       C  0.33061410  0.07010129  0.92493400    -0.10600
C2366       C  0.30926943  0.06903888  0.93570845     0.08700
C2367       C  0.27764937  0.12723467  0.92328493     0.09800
S2368       S  0.32104344  0.13112451  0.89526397    -0.24900
H2369       H  0.34970763  0.09007554  0.90440101     0.20000
S2370       S  0.30452487  0.04626233  0.95257091    -0.30600
H2371       H  0.27549908  0.08693667  0.94289120     0.10300
C2372       C  0.25425080  0.12600904  0.91571316     0.03600
C2373       C  0.23962788  0.14701222  0.91568956    -0.12900
C2374       C  0.24799856  0.16902649  0.92324527    -0.08600
C2375       C  0.27089072  0.16960184  0.93187021     0.07000
C2376       C  0.28560009  0.14882869  0.93151145    -0.13700
S2377       S  0.24357857  0.09810082  0.90537436    -0.30600
H2378       H  0.22197127  0.14649069  0.90927316     0.11300
S2379       S  0.28210438  0.19582393  0.94406719    -0.27700
H2380       H  0.30342799  0.14943305  0.93771759     0.08500
H2381       H  0.32884551  0.04632583  0.95853449     0.26900
H2382       H  0.22058803  0.10700727  0.90021236     0.21700
H2383       H  0.25920729  0.20213734  0.95156856     0.27000
H2384       H  0.29630587  0.13593826  0.89174719     0.15900
C2385       C  0.39180998  0.97936639  0.01165442    -0.11400
C2386       C  0.36755803  0.97800440  0.01785286     0.15100
C2387       C  0.34848518  0.97830789  0.00515195     0.02000
C2388       C  0.35396099  0.98202417  0.98695433    -0.15800
C2389       C  0.37818406  0.98504610  0.98098563    -0.10600
C2390       C  0.39730090  0.98226372  0.99344113     0.08700
C2391       C  0.36287105  0.97987918  0.03757771     0.09800
S2392       S  0.31676834  0.97497508  0.01140856    -0.24900
H2393       H  0.33909783  0.98378439  0.97755987     0.20000
S2394       S  0.42912701  0.98248706  0.98698369    -0.30600
H2395       H  0.40664238  0.97901446  0.02116793     0.10300
C2396       C  0.37288810  0.96323582  0.04986952     0.03600
C2397       C  0.37075312  0.96800174  0.06842807    -0.12900
C2398       C  0.35903154  0.98918952  0.07493824    -0.08600
C2399       C  0.34772686  0.00495594  0.06264458     0.07000
C2400       C  0.35000699  0.00031252  0.04422993    -0.13700
S2401       S  0.38871588  0.93614086  0.04197642    -0.30600
H2402       H  0.37933475  0.95589228  0.07785276     0.11300
S2403       S  0.33043954  0.03160029  0.06961235    -0.27700
H2404       H  0.34224544  0.01319787  0.03495806     0.08500
H2405       H  0.42543228  0.97194844  0.96992408     0.26900
H2406       H  0.39647432  0.92816886  0.05884464     0.21700
H2407       H  0.32227302  0.02198793  0.08598905     0.27000
H2408       H  0.32107415  0.96134443  0.02690293     0.15900
C2409       C  0.54062851  0.09305945  0.95112594    -0.11400
C2410       C  0.52964081  0.09261769  0.93425389     0.15100
C2411       C  0.54351961  0.09875795  0.91893103     0.02000
C2412       C  0.56867821  0.10252505  0.92057955    -0.15800
C2413       C  0.58014116  0.10009960  0.93719956    -0.10600
C2414       C  0.56572259  0.09686101  0.95277191     0.08700
C2415       C  0.50537659  0.08120495  0.93280218     0.09800
S2416       S  0.53069779  0.09931672  0.89675256    -0.24900
H2417       H  0.57963634  0.10509115  0.90857077     0.20000
S2418       S  0.57858064  0.09577170  0.97492335    -0.30600
H2419       H  0.52990421  0.08869536  0.96294161     0.10300
C2420       C  0.50337150  0.05650120  0.92772979     0.03600
C2421       C  0.48036188  0.04558516  0.92747902    -0.12900
C2422       C  0.45906979  0.05870736  0.93224055    -0.08600
C2423       C  0.46123057  0.08361576  0.93749819     0.07000
C2424       C  0.48444839  0.09447587  0.93776450    -0.13700
S2425       S  0.53029610  0.03859989  0.92213358    -0.30600
H2426       H  0.47905850  0.02654648  0.92357653     0.11300
S2427       S  0.43503137  0.10183180  0.94428069    -0.27700
H2428       H  0.48646353  0.11335416  0.94194248     0.08500
H2429       H  0.59905395  0.11024279  0.97094062     0.26900
H2430       H  0.51846136  0.01604213  0.91992956     0.21700
H2431       H  0.44760832  0.12364605  0.94792004     0.27000
H2432       H  0.50646204  0.10392297  0.90224741     0.15900
C2433       C  0.67551806  0.93274688  0.86481801    -0.11400
C2434       C  0.68476860  0.92690855  0.88163811     0.15100
C2435       C  0.68804692  0.94552956  0.89464574     0.02000
C2436       C  0.68128074  0.96954163  0.89060435    -0.15800
C2437       C  0.67135391  0.97522460  0.87388126    -0.10600
C2438       C  0.66842812  0.95644260  0.86086658     0.08700
C2439       C  0.68936113  0.90085567  0.88494494     0.09800
S2440       S  0.70071557  0.94000573  0.91646122    -0.24900
H2441       H  0.68369697  0.98387454  0.90056428     0.20000
S2442       S  0.65439086  0.96087163  0.83934734    -0.30600
H2443       H  0.67292893  0.91841406  0.85486780     0.10300
C2444       C  0.66960464  0.88468889  0.88692581     0.03600
C2445       C  0.67379736  0.85953573  0.88570994    -0.12900
C2446       C  0.69741865  0.85024903  0.88274225    -0.08600
C2447       C  0.71748304  0.86647749  0.88260585     0.07000
C2448       C  0.71319234  0.89165255  0.88333525    -0.13700
S2449       S  0.63884897  0.89621860  0.88999993    -0.30600
H2450       H  0.65843684  0.84715226  0.88602760     0.11300
S2451       S  0.74883392  0.85627063  0.88154775    -0.27700
H2452       H  0.72840696  0.90413942  0.88209983     0.08500
H2453       H  0.63617373  0.97689970  0.84577907     0.26900
H2454       H  0.62760926  0.87349413  0.89261207     0.21700
H2455       H  0.74466066  0.83390435  0.89005396     0.27000
H2456       H  0.69491355  0.91513225  0.91740868     0.15900
C2457       C  0.56424440  0.98359768  0.87665203    -0.11400
C2458       C  0.54694705  0.00038641  0.87039254     0.15100
C2459       C  0.55496188  0.02357008  0.86484848     0.02000
C2460       C  0.57977219  0.02926751  0.86550789    -0.15800
C2461       C  0.59736092  0.01198818  0.87058067    -0.10600
C2462       C  0.58939482  0.98885713  0.87639859     0.08700
C2463       C  0.52082424  0.99314629  0.86927409     0.09800
S2464       S  0.53479839  0.04622820  0.85567175    -0.24900
H2465       H  0.58556820  0.04712533  0.86111948     0.20000
S2466       S  0.61081335  0.96520816  0.88220163    -0.30600
H2467       H  0.55798953  0.96596316  0.88112103     0.10300
C2468       C  0.51326103  0.97369526  0.85801373     0.03600
C2469       C  0.48825562  0.96874284  0.85627194    -0.12900
C2470       C  0.47063610  0.98326507  0.86505764    -0.08600
C2471       C  0.47812928  0.00290053  0.87604291     0.07000
C2472       C  0.50307446  0.00715091  0.87849856    -0.13700
S2473       S  0.53516057  0.95619645  0.84483750    -0.30600
H2474       H  0.48227272  0.95396480  0.84761387     0.11300
S2475       S  0.45681623  0.02423552  0.88610549    -0.27700
H2476       H  0.50867990  0.02239949  0.88682900     0.08500
H2477       H  0.59373900  0.94633903  0.88436664     0.26900
H2478       H  0.51814461  0.94215003  0.83520771     0.21700
H2479       H  0.44066416  0.02453075  0.87157074     0.27000
H2480       H  0.51985604  0.02951583  0.84647144     0.15900
C2481       C  0.54897771  0.78925444  0.86474524    -0.11400
C2482       C  0.56542164  0.77332526  0.87306646     0.15100
C2483       C  0.55624712  0.75160434  0.88072085     0.02000
C2484       C  0.53126713  0.74631806  0.87966847    -0.15800
C2485       C  0.51538170  0.76147400  0.87029842    -0.10600
C2486       C  0.52429394  0.78313654  0.86271569     0.08700
C2487       C  0.59190865  0.77975106  0.87341370     0.09800
S2488       S  0.57547911  0.72910444  0.89105310    -0.24900
H2489       H  0.52441744  0.72951702  0.88526230     0.20000
S2490       S  0.50439674  0.80277644  0.85009974    -0.30600
H2491       H  0.55570192  0.80621509  0.85937447     0.10300
C2492       C  0.60520050  0.78467132  0.85756968     0.03600
C2493       C  0.63014859  0.79016805  0.85861002    -0.12900
C2494       C  0.64303778  0.78871793  0.87485302    -0.08600
C2495       C  0.62965887  0.78329372  0.89064305     0.07000
C2496       C  0.60421257  0.78018485  0.88982437    -0.13700
S2497       S  0.59110074  0.78233528  0.83576424    -0.30600
H2498       H  0.63981219  0.79491280  0.84645558     0.11300
S2499       S  0.64446231  0.77777132  0.91166723    -0.27700
H2500       H  0.59391530  0.77684799  0.90198901     0.08500
H2501       H  0.52260377  0.81878214  0.84401535     0.26900
H2502       H  0.61235917  0.78592081  0.82540557     0.21700
H2503       H  0.62441594  0.76707802  0.92045219     0.27000
H2504       H  0.59534845  0.73201272  0.87919913     0.15900
C2505       C  0.41457887  0.82863125  0.88015047    -0.11400
C2506       C  0.43390935  0.84474193  0.88335221     0.15100
C2507       C  0.45729777  0.83535368  0.88719126     0.02000
C2508       C  0.46160729  0.81033329  0.88523504    -0.15800
C2509       C  0.44295569  0.79452783  0.87967533    -0.10600
C2510       C  0.41879926  0.80354247  0.87855708     0.08700
C2511       C  0.43022595  0.87068598  0.87913804     0.09800
S2512       S  0.48282146  0.85462838  0.89283251    -0.24900
H2513       H  0.48008498  0.80355037  0.88672032     0.20000
S2514       S  0.39288182  0.78408600  0.87447852    -0.30600
H2515       H  0.39641064  0.83576124  0.87774344     0.10300
C2516       C  0.43969804  0.88016057  0.86304038     0.03600
C2517       C  0.43496956  0.90442606  0.85878814    -0.12900
C2518       C  0.42074638  0.91935347  0.87015609    -0.08600
C2519       C  0.41114926  0.90994913  0.88622309     0.07000
C2520       C  0.41593720  0.88555835  0.89055933    -0.13700
S2521       S  0.45680195  0.86106039  0.84741347    -0.30600
H2522       H  0.44220436  0.91184096  0.84646204     0.11300
S2523       S  0.39173778  0.92846958  0.90062730    -0.27700
H2524       H  0.40836026  0.87790675  0.90269569     0.08500
H2525       H  0.40351597  0.76294961  0.88158833     0.26900
H2526       H  0.46401398  0.87973747  0.83578124     0.21700
H2527       H  0.38896624  0.91130184  0.91432723     0.27000
H2528       H  0.46877900  0.87424970  0.89963019     0.15900
C2529       C  0.65197246  0.06669798  0.80573473    -0.11400
C2530       C  0.67182746  0.05589069  0.79665915     0.15100
C2531       C  0.69072234  0.04544183  0.80668980     0.02000
C2532       C  0.68752871  0.04246059  0.82514734    -0.15800
C2533       C  0.66544177  0.04908326  0.83388074    -0.10600
C2534       C  0.64904950  0.06431087  0.82431822     0.08700
C2535       C  0.66960790  0.05073297  0.77720679     0.09800
S2536       S  0.71809774  0.03318194  0.79635923    -0.24900
H2537       H  0.70202544  0.03366851  0.83241510     0.20000
S2538       S  0.62347348  0.08038293  0.83449262    -0.30600
H2539       H  0.63789117  0.07577763  0.79814991     0.10300
C2540       C  0.65913537  0.02870659  0.77143691     0.03600
C2541       C  0.65597632  0.02430929  0.75315911    -0.12900
C2542       C  0.66352248  0.04101190  0.73991696    -0.08600
C2543       C  0.67305450  0.06381452  0.74602610     0.07000
C2544       C  0.67636153  0.06810631  0.76450615    -0.13700
S2545       S  0.64913550  0.00622894  0.78745460    -0.30600
H2546       H  0.64696408  0.00759493  0.74915842     0.11300
S2547       S  0.67873194  0.08942802  0.73184851    -0.27700
H2548       H  0.68352337  0.08548864  0.76909873     0.08500
H2549       H  0.63362538  0.08259474  0.85160320     0.26900
H2550       H  0.63752422  0.99046487  0.77521152     0.21700
H2551       H  0.65620754  0.08726808  0.72303530     0.27000
H2552       H  0.71789059  0.04862495  0.78148008     0.15900
C2553       C  0.73226888  0.76230120  0.77303079    -0.11400
C2554       C  0.72345621  0.77756658  0.78690315     0.15100
C2555       C  0.70677492  0.79618945  0.78273319     0.02000
C2556       C  0.69971526  0.79953678  0.76503307    -0.15800
C2557       C  0.70901145  0.78509936  0.75064188    -0.10600
C2558       C  0.72470796  0.76527875  0.75515804     0.08700
C2559       C  0.72965372  0.77297636  0.80593357     0.09800
S2560       S  0.69300328  0.81599763  0.79957297    -0.24900
H2561       H  0.68565533  0.81303390  0.76288761     0.20000
S2562       S  0.73473188  0.74204222  0.73941132    -0.30600
H2563       H  0.74432650  0.74730456  0.77628082     0.10300
C2564       C  0.71709290  0.75510710  0.81575995     0.03600
C2565       C  0.71556809  0.75742080  0.83451567    -0.12900
C2566       C  0.72505498  0.77811139  0.84345637    -0.08600
C2567       C  0.74275815  0.79189958  0.83398820     0.07000
C2568       C  0.74412377  0.78990151  0.81523595    -0.13700
S2569       S  0.70000783  0.73156704  0.80434620    -0.30600
H2570       H  0.70427586  0.74481731  0.84190637     0.11300
S2571       S  0.76491446  0.81108163  0.84497052    -0.27700
H2572       H  0.75543114  0.80250689  0.80781825     0.08500
H2573       H  0.71214279  0.73975821  0.73079801     0.26900
H2574       H  0.69196880  0.71941806  0.81978793     0.21700
H2575       H  0.76190179  0.80055514  0.86193184     0.27000
H2576       H  0.68905020  0.79777460  0.81232729     0.15900
C2577       C  0.65111844  0.88400098  0.71424729    -0.11400
C2578       C  0.65963998  0.89301452  0.69785134     0.15100
C2579       C  0.67197808  0.87710149  0.68577296     0.02000
C2580       C  0.67685521  0.85305029  0.69079152    -0.15800
C2581       C  0.66955212  0.84441020  0.70763161    -0.10600
C2582       C  0.65572701  0.85985878  0.71922202     0.08700
C2583       C  0.65833793  0.91971662  0.69505706     0.09800
S2584       S  0.68261368  0.88667741  0.66406220    -0.24900
H2585       H  0.68723702  0.84127886  0.68172532     0.20000
S2586       S  0.64378989  0.84908758  0.74034247    -0.30600
H2587       H  0.64165051  0.89628005  0.72346574     0.10300
C2588       C  0.63585548  0.93216188  0.69355503     0.03600
C2589       C  0.63546843  0.95778893  0.69408479    -0.12900
C2590       C  0.65712499  0.97111872  0.69614164    -0.08600
C2591       C  0.67972900  0.95860411  0.69620734     0.07000
C2592       C  0.68008597  0.93311151  0.69585027    -0.13700
S2593       S  0.60766903  0.91541285  0.69141661    -0.30600
H2594       H  0.61817431  0.96744154  0.69392700     0.11300
S2595       S  0.70865487  0.97413302  0.69713287    -0.27700
H2596       H  0.69742053  0.92361305  0.69679839     0.08500
H2597       H  0.63014812  0.87009041  0.74493123     0.26900
H2598       H  0.59217413  0.93582557  0.69002046     0.21700
H2599       H  0.70067452  0.99517971  0.68829154     0.27000
H2600       H  0.66509097  0.90519784  0.66188460     0.15900
C2601       C  0.40337570  0.97318819  0.79212300    -0.11400
C2602       C  0.38687526  0.99173073  0.78810407     0.15100
C2603       C  0.37598597  0.00534968  0.80226509     0.02000
C2604       C  0.38202642  0.00009380  0.82013787    -0.15800
C2605       C  0.39908987  0.98163858  0.82430064    -0.10600
C2606       C  0.41007475  0.96829310  0.80973002     0.08700
C2607       C  0.38369733  0.99684043  0.76875676     0.09800
S2608       S  0.35493725  0.03005776  0.79839772    -0.24900
H2609       H  0.37372824  0.01112097  0.83063929     0.20000
S2610       S  0.43366325  0.94542481  0.81287453    -0.30600
H2611       H  0.41175504  0.96293650  0.78115562     0.10300
C2612       C  0.39830779  0.01427667  0.76016063     0.03600
C2613       C  0.40240263  0.01227914  0.74158500    -0.12900
C2614       C  0.39313321  0.99244147  0.73146921    -0.08600
C2615       C  0.37435415  0.97839431  0.73964680     0.07000
C2616       C  0.37060460  0.98012441  0.75824893    -0.13700
S2617       S  0.41385125  0.03747826  0.77308912    -0.30600
H2618       H  0.41413101  0.02544590  0.73524781     0.11300
S2619       S  0.35486394  0.95747766  0.72758550    -0.27700
H2620       H  0.35841572  0.96738979  0.76472806     0.08500
H2621       H  0.44171267  0.94353510  0.79495296     0.26900
H2622       H  0.42491244  0.04933973  0.75853616     0.21700
H2623       H  0.35673950  0.96905334  0.71100768     0.27000
H2624       H  0.34695441  0.02181107  0.78153808     0.15900
C2625       C  0.55868668  0.02544935  0.68019398    -0.11400
C2626       C  0.54456916  0.01514128  0.69387881     0.15100
C2627       C  0.55550458  0.00943980  0.71034907     0.02000
C2628       C  0.58045408  0.01312612  0.71251759    -0.15800
C2629       C  0.59478637  0.02334171  0.69887426    -0.10600
C2630       C  0.58361041  0.03004426  0.68264793     0.08700
C2631       C  0.51885702  0.00885248  0.69058366     0.09800
S2632       S  0.53869959  0.99697547  0.72901869    -0.24900
H2633       H  0.58879536  0.00782801  0.72500816     0.20000
S2634       S  0.59978218  0.04531927  0.66495230    -0.30600
H2635       H  0.55019811  0.03004504  0.66760689     0.10300
C2636       C  0.50008580  0.02634305  0.69242257     0.03600
C2637       C  0.47576004  0.01851128  0.69340598    -0.12900
C2638       C  0.46998588  0.99356243  0.69272622    -0.08600
C2639       C  0.48887667  0.97630152  0.68980099     0.07000
C2640       C  0.51301541  0.98416967  0.68847150    -0.13700
S2641       S  0.50725344  0.05831002  0.69498544    -0.30600
H2642       H  0.46121995  0.03173434  0.69548237     0.11300
S2643       S  0.48394738  0.94395033  0.68991033    -0.27700
H2644       H  0.52757888  0.97076577  0.68722480     0.08500
H2645       H  0.61442783  0.05932100  0.67652992     0.26900
H2646       H  0.48298805  0.06675955  0.69630873     0.21700
H2647       H  0.47053787  0.94495030  0.70607288     0.27000
H2648       H  0.51663344  0.00923796  0.72570946     0.15900
C2649       C  0.44668419  0.70960509  0.76000353    -0.11400
C2650       C  0.45311150  0.72827915  0.77208327     0.15100
C2651       C  0.46478223  0.74917926  0.76543126     0.02000
C2652       C  0.46825686  0.75168012  0.74700433    -0.15800
C2653       C  0.46013922  0.73402309  0.73442084    -0.10600
C2654       C  0.45085089  0.71179948  0.74142020     0.08700
C2655       C  0.44857552  0.72559609  0.79164538     0.09800
S2656       S  0.47595971  0.77340904  0.77977426    -0.24900
H2657       H  0.47795626  0.76768916  0.74254417     0.20000
S2658       S  0.44651268  0.68451682  0.72816696    -0.30600
H2659       H  0.43902642  0.69288079  0.76516045     0.10300
C2660       C  0.43113578  0.74018158  0.80072348     0.03600
C2661       C  0.43159580  0.74197067  0.81950375    -0.12900
C2662       C  0.44988483  0.73023698  0.82953935    -0.08600
C2663       C  0.46456048  0.71240586  0.82044795     0.07000
C2664       C  0.46404459  0.71065960  0.80160589    -0.13700
S2665       S  0.40904991  0.75752290  0.78825568    -0.30600
H2666       H  0.41796481  0.75320621  0.82605323     0.11300
S2667       S  0.48510534  0.69273392  0.83251777    -0.27700
H2668       H  0.47678137  0.69875947  0.79452097     0.08500
H2669       H  0.46767070  0.68784043  0.71765298     0.26900
H2670       H  0.39765676  0.76911850  0.80305894     0.21700
H2671       H  0.49444240  0.67974418  0.81756623     0.27000
H2672       H  0.48284819  0.75845332  0.79403071     0.15900
C2673       C  0.56221240  0.75602617  0.67680781    -0.11400
C2674       C  0.57509129  0.73762347  0.68550619     0.15100
C2675       C  0.56248311  0.71705691  0.69166943     0.02000
C2676       C  0.53698166  0.71703377  0.69149484    -0.15800
C2677       C  0.52370259  0.73740348  0.68555213    -0.10600
C2678       C  0.53659801  0.75623079  0.67664986     0.08700
C2679       C  0.59934829  0.74396304  0.69259133     0.09800
S2680       S  0.57795794  0.69163378  0.70166929    -0.24900
H2681       H  0.52744384  0.70181020  0.69742180     0.20000
S2682       S  0.52172565  0.78234455  0.66701239    -0.30600
H2683       H  0.57218496  0.77166903  0.67195310     0.10300
C2684       C  0.62022573  0.74562725  0.68158599     0.03600
C2685       C  0.64163210  0.75578408  0.68866798    -0.12900
C2686       C  0.64233707  0.76469294  0.70643833    -0.08600
C2687       C  0.62134405  0.76249240  0.71748170     0.07000
C2688       C  0.60035106  0.75176315  0.71052260    -0.13700
S2689       S  0.61940340  0.73513893  0.65857315    -0.30600
H2690       H  0.65774587  0.75728556  0.68022987     0.11300
S2691       S  0.61909292  0.77497658  0.73991533    -0.27700
H2692       H  0.58403196  0.75092482  0.71885143     0.08500
H2693       H  0.54205487  0.79100305  0.65736783     0.26900
H2694       H  0.64431533  0.73890381  0.65473543     0.21700
H2695       H  0.63215618  0.79629975  0.73606890     0.27000
H2696       H  0.60061662  0.69564817  0.69317268     0.15900
C2697       C  0.47380332  0.84141681  0.69527197    -0.11400
C2698       C  0.45309804  0.84827046  0.68555561     0.15100
C2699       C  0.44095747  0.83033207  0.67514221     0.02000
C2700       C  0.44821663  0.80582380  0.67619191    -0.15800
C2701       C  0.46683059  0.79880134  0.68784463    -0.10600
C2702       C  0.48045537  0.81695171  0.69689179     0.08700
C2703       C  0.44371318  0.87366325  0.68794451     0.09800
S2704       S  0.41501540  0.83712585  0.66137997    -0.24900
H2705       H  0.43780227  0.79196191  0.66918041     0.20000
S2706       S  0.50525050  0.81021853  0.71190560    -0.30600
H2707       H  0.48384548  0.85513616  0.70271863     0.10300
C2708       C  0.43793051  0.88305879  0.70517743     0.03600
C2709       C  0.43079648  0.90745569  0.70720973    -0.12900
C2710       C  0.42678488  0.92254845  0.69236030    -0.08600
C2711       C  0.43052000  0.91218512  0.67497759     0.07000
C2712       C  0.44022169  0.88856074  0.67305586    -0.13700
S2713       S  0.43878550  0.86394677  0.72476792    -0.30600
H2714       H  0.42881817  0.91468724  0.72066855     0.11300
S2715       S  0.42128478  0.92667924  0.65466334    -0.27700
H2716       H  0.44411703  0.88135540  0.65973676     0.08500
H2717       H  0.51026206  0.78650721  0.70564721     0.26900
H2718       H  0.42791834  0.88070546  0.73688733     0.21700
H2719       H  0.40008387  0.93695204  0.66246514     0.27000
H2720       H  0.40378461  0.85308259  0.67388758     0.15900
C2721       C  0.82579190  0.69550517  0.43613060    -0.11400
C2722       C  0.81689801  0.67596113  0.42575788     0.15100
C2723       C  0.79182536  0.67512574  0.42162154     0.02000
C2724       C  0.77634900  0.69382164  0.42772092    -0.15800
C2725       C  0.78522948  0.71382866  0.43766344    -0.10600
C2726       C  0.81027036  0.71431089  0.44222938     0.08700
C2727       C  0.83387866  0.65603072  0.42034436     0.09800
S2728       S  0.77849687  0.65108535  0.40820906    -0.24900
H2729       H  0.75725635  0.69312585  0.42401589     0.20000
S2730       S  0.82337847  0.73766547  0.45632989    -0.30600
H2731       H  0.84492878  0.69586836  0.43975187     0.10300
C2732       C  0.85321795  0.65984367  0.40810966     0.03600
C2733       C  0.86944342  0.64063718  0.40400173    -0.12900
C2734       C  0.86661658  0.61759093  0.41175318    -0.08600
C2735       C  0.84694803  0.61382558  0.42387308     0.07000
C2736       C  0.83078258  0.63297610  0.42789106    -0.13700
S2737       S  0.85686607  0.68897627  0.39740165    -0.30600
H2738       H  0.88440274  0.64355090  0.39468896     0.11300
S2739       S  0.84227848  0.58566468  0.43561599    -0.27700
H2740       H  0.81600357  0.63009800  0.43739349     0.08500
H2741       H  0.80302102  0.73939648  0.46794333     0.26900
H2742       H  0.87774402  0.68275461  0.38717183     0.21700
H2743       H  0.86701015  0.58276797  0.44017851     0.27000
H2744       H  0.79933649  0.64642827  0.39753302     0.15900
C2745       C  0.78502480  0.18323876  0.41000128    -0.11400
C2746       C  0.78597970  0.16151797  0.41964145     0.15100
C2747       C  0.80722186  0.15552820  0.42921560     0.02000
C2748       C  0.82721541  0.17112905  0.42868081    -0.15800
C2749       C  0.82645175  0.19290206  0.41903866    -0.10600
C2750       C  0.80510859  0.19892429  0.40946872     0.08700
C2751       C  0.76536501  0.14446327  0.41869427     0.09800
S2752       S  0.81006088  0.12819269  0.44228484    -0.24900
H2753       H  0.84341583  0.16636703  0.43614457     0.20000
S2754       S  0.80282874  0.22537987  0.39550564    -0.30600
H2755       H  0.76880685  0.18759716  0.40243044     0.10300
C2756       C  0.74388778  0.14837379  0.42884943     0.03600
C2757       C  0.72679716  0.12951362  0.43017405    -0.12900
C2758       C  0.73083121  0.10699512  0.42142191    -0.08600
C2759       C  0.75128250  0.10415841  0.40983552     0.07000
C2760       C  0.76848070  0.12278754  0.40881358    -0.13700
S2761       S  0.73919233  0.17657955  0.44119560    -0.30600
H2762       H  0.71096976  0.13183496  0.43885198     0.11300
S2763       S  0.75651483  0.07739633  0.39599218    -0.27700
H2764       H  0.78478154  0.12015029  0.40063600     0.08500
H2765       H  0.82656699  0.22292311  0.38826866     0.26900
H2766       H  0.71533540  0.17148983  0.44721022     0.21700
H2767       H  0.73162000  0.07327157  0.39253134     0.27000
H2768       H  0.78523912  0.12631976  0.44704317     0.15900
C2769       C  0.73479088  0.94079928  0.45263079    -0.11400
C2770       C  0.74011410  0.92870705  0.43641089     0.15100
C2771       C  0.73917101  0.94162089  0.42019957     0.02000
C2772       C  0.73120806  0.96589907  0.42045743    -0.15800
C2773       C  0.72406202  0.97741282  0.43658489    -0.10600
C2774       C  0.72693955  0.96504220  0.45291155     0.08700
C2775       C  0.74125169  0.90189963  0.43664583     0.09800
S2776       S  0.74615710  0.92763278  0.39873520    -0.24900
H2777       H  0.72918401  0.97535902  0.40788754     0.20000
S2778       S  0.72014236  0.97890360  0.47445613    -0.30600
H2779       H  0.73551074  0.93086839  0.46508479     0.10300
C2780       C  0.76245945  0.88903759  0.44140909     0.03600
C2781       C  0.76150991  0.86352057  0.44281132    -0.12900
C2782       C  0.73953605  0.85086722  0.43996801    -0.08600
C2783       C  0.71840107  0.86409665  0.43491129     0.07000
C2784       C  0.71958314  0.88932031  0.43334176    -0.13700
S2785       S  0.79047301  0.90520646  0.44583928    -0.30600
H2786       H  0.77768720  0.85349875  0.44662114     0.11300
S2787       S  0.68923360  0.85027691  0.43011201    -0.27700
H2788       H  0.70329280  0.89936955  0.42971294     0.08500
H2789       H  0.72660852  0.00271162  0.46950763     0.26900
H2790       H  0.80462968  0.88459831  0.44996274     0.21700
H2791       H  0.69909599  0.83074726  0.41996216     0.27000
H2792       H  0.76120831  0.90897847  0.40524602     0.15900
C2793       C  0.79635629  0.68755185  0.62443009    -0.11400
C2794       C  0.81713503  0.68426215  0.63493734     0.15100
C2795       C  0.82242343  0.70120423  0.64876449     0.02000
C2796       C  0.80693117  0.72129060  0.65163988    -0.15800
C2797       C  0.78598273  0.72446935  0.64121739    -0.10600
C2798       C  0.78073117  0.70748292  0.62737118     0.08700
C2799       C  0.83403595  0.66426227  0.62990505     0.09800
S2800       S  0.84867976  0.69828671  0.66303679    -0.24900
H2801       H  0.81105761  0.73432880  0.66220691     0.20000
S2802       S  0.75541451  0.71210326  0.61233312    -0.30600
H2803       H  0.79287572  0.67482545  0.61354008     0.10300
C2804       C  0.82825512  0.63972205  0.63317416     0.03600
C2805       C  0.84453195  0.62133681  0.62746610    -0.12900
C2806       C  0.86632160  0.62702514  0.61831159    -0.08600
C2807       C  0.87151503  0.65172715  0.61455403     0.07000
C2808       C  0.85554825  0.67000752  0.62064327    -0.13700
S2809       S  0.80053011  0.63192782  0.64506768    -0.30600
H2810       H  0.84049094  0.60250887  0.63047461     0.11300
S2811       S  0.89743838  0.66120666  0.60133955    -0.27700
H2812       H  0.85956632  0.68889334  0.61771476     0.08500
H2813       H  0.75723679  0.68954023  0.60321505     0.26900
H2814       H  0.80253366  0.60651060  0.64261738     0.21700
H2815       H  0.89509728  0.64228910  0.58853087     0.27000
H2816       H  0.85066419  0.67275058  0.66176649     0.15900
C2817       C  0.68395885  0.77032223  0.56681698    -0.11400
C2818       C  0.70316743  0.76560938  0.55463881     0.15100
C2819       C  0.72737086  0.76473859  0.56097564     0.02000
C2820       C  0.73179265  0.76814606  0.57921175    -0.15800
C2821       C  0.71278509  0.77334680  0.59149412    -0.10600
C2822       C  0.68851587  0.77449198  0.58511451     0.08700
C2823       C  0.69822604  0.76413279  0.53518466     0.09800
S2824       S  0.75362862  0.76001590  0.54646627    -0.24900
H2825       H  0.75051125  0.76719937  0.58378795     0.20000
S2826       S  0.66290578  0.78279157  0.59925836    -0.30600
H2827       H  0.66541914  0.77161414  0.56192223     0.10300
C2828       C  0.70142391  0.74221628  0.52528651     0.03600
C2829       C  0.70341211  0.74303675  0.50650659    -0.12900
C2830       C  0.70253098  0.76540231  0.49763529    -0.08600
C2831       C  0.69694954  0.78692340  0.50746267     0.07000
C2832       C  0.69474748  0.78605113  0.52610723    -0.13700
S2833       S  0.70487558  0.71359943  0.53669349    -0.30600
H2834       H  0.70761920  0.72658580  0.49888234     0.11300
S2835       S  0.69424439  0.81632180  0.49705978    -0.27700
H2836       H  0.69214363  0.80288388  0.53368477     0.08500
H2837       H  0.67522595  0.80193313  0.60804691     0.26900
H2838       H  0.70893222  0.69906201  0.52126564     0.21700
H2839       H  0.68682646  0.80734458  0.48022946     0.27000
H2840       H  0.74464287  0.77292120  0.53176838     0.15900
C2841       C  0.79959682  0.18713560  0.61945075    -0.11400
C2842       C  0.80062447  0.16610353  0.62987343     0.15100
C2843       C  0.82280830  0.15928668  0.63790601     0.02000
C2844       C  0.84365845  0.17324652  0.63495104    -0.15800
C2845       C  0.84279676  0.19419052  0.62439952    -0.10600
C2846       C  0.82049931  0.20118334  0.61652074     0.08700
C2847       C  0.77962036  0.14947795  0.62985546     0.09800
S2848       S  0.82577979  0.13266235  0.65169777    -0.24900
H2849       H  0.86065456  0.16789506  0.64117011     0.20000
S2850       S  0.81792853  0.22666487  0.60162269    -0.30600
H2851       H  0.78268542  0.19196971  0.61290089     0.10300
C2852       C  0.75910338  0.15318445  0.64110284     0.03600
C2853       C  0.74088176  0.13523193  0.64170590    -0.12900
C2854       C  0.74296747  0.11391348  0.63114503    -0.08600
C2855       C  0.76279881  0.11126125  0.61898699     0.07000
C2856       C  0.78101772  0.12886147  0.61868223    -0.13700
S2857       S  0.75692414  0.17997926  0.65534503    -0.30600
H2858       H  0.72561229  0.13727211  0.65094531     0.11300
S2859       S  0.76582062  0.08605281  0.60330747    -0.27700
H2860       H  0.79659192  0.12640584  0.60973893     0.08500
H2861       H  0.84107928  0.22335199  0.59356890     0.26900
H2862       H  0.73299393  0.17574028  0.66157883     0.21700
H2863       H  0.74061483  0.08394363  0.60006290     0.27000
H2864       H  0.80152812  0.13259385  0.65806286     0.15900
C2865       C  0.65510017  0.03479503  0.55430897    -0.11400
C2866       C  0.64954245  0.05769708  0.54729823     0.15100
C2867       C  0.64468443  0.07735331  0.55923278     0.02000
C2868       C  0.64827620  0.07436476  0.57768819    -0.15800
C2869       C  0.65607790  0.05191078  0.58465982    -0.10600
C2870       C  0.65790712  0.03153064  0.57275226     0.08700
C2871       C  0.65217268  0.06080550  0.52761410     0.09800
S2872       S  0.63522572  0.10697053  0.55162396    -0.24900
H2873       H  0.64614143  0.09009295  0.58651222     0.20000
S2874       S  0.66460639  0.00097706  0.57990853    -0.30600
H2875       H  0.65823297  0.01946764  0.54523826     0.10300
C2876       C  0.67328931  0.07164126  0.52029280     0.03600
C2877       C  0.67741628  0.07054576  0.50171407    -0.12900
C2878       C  0.66089016  0.05890016  0.49013423    -0.08600
C2879       C  0.63923582  0.04888323  0.49746971     0.07000
C2880       C  0.63511429  0.05000681  0.51606715    -0.13700
S2881       S  0.69590978  0.08542597  0.53469319    -0.30600
H2882       H  0.69402162  0.07821147  0.49619959     0.11300
S2883       S  0.61719098  0.03266339  0.48412048    -0.27700
H2884       H  0.61902552  0.04140391  0.52167709     0.08500
H2885       H  0.64947370  0.00263123  0.59523275     0.26900
H2886       H  0.71088504  0.09471104  0.52098781     0.21700
H2887       H  0.63477299  0.01901001  0.47439559     0.27000
H2888       H  0.62488366  0.09875956  0.53546522     0.15900
C2889       C  0.75920654  0.95497525  0.64873979    -0.11400
C2890       C  0.75737895  0.94123227  0.63280696     0.15100
C2891       C  0.75180083  0.95324881  0.61671397     0.02000
C2892       C  0.74433646  0.97761782  0.61738152    -0.15800
C2893       C  0.74321432  0.99051842  0.63374234    -0.10600
C2894       C  0.75311509  0.97975559  0.64917378     0.08700
C2895       C  0.75628521  0.91432064  0.63395296     0.09800
S2896       S  0.75204757  0.93793429  0.59515740    -0.24900
H2897       H  0.73780432  0.98593579  0.60524322     0.20000
S2898       S  0.75807024  0.99652232  0.66975332    -0.30600
H2899       H  0.76414678  0.94614322  0.66108621     0.10300
C2900       C  0.77536581  0.90018530  0.64104529     0.03600
C2901       C  0.77198097  0.87501143  0.64316817    -0.12900
C2902       C  0.75008082  0.86365973  0.63805577    -0.08600
C2903       C  0.73158249  0.87775452  0.62993308     0.07000
C2904       C  0.73467149  0.90290639  0.62852137    -0.13700
S2905       S  0.80412165  0.91404640  0.64695794    -0.30600
H2906       H  0.78636680  0.86415273  0.64903612     0.11300
S2907       S  0.70456490  0.86404749  0.62027669    -0.27700
H2908       H  0.72011192  0.91391312  0.62302577     0.08500
H2909       H  0.76225708  0.01898769  0.66136330     0.26900
H2910       H  0.81567939  0.89263881  0.65276182     0.21700
H2911       H  0.69229093  0.88581404  0.61613182     0.27000
H2912       H  0.76874626  0.91959926  0.59989134     0.15900
C2913       C  0.79232944  0.66124791  0.11990875    -0.11400
C2914       C  0.81169052  0.65819098  0.13178397     0.15100
C2915       C  0.81318770  0.67319093  0.14726750     0.02000
C2916       C  0.79470779  0.69043833  0.15079910    -0.15800
C2917       C  0.77484089  0.69283435  0.13917344    -0.10600
C2918       C  0.77404542  0.67846039  0.12333815     0.08700
C2919       C  0.82837269  0.63752795  0.12821428     0.09800
S2920       S  0.83733296  0.67032670  0.16340857    -0.24900
H2921       H  0.79542768  0.70148264  0.16293205     0.20000
S2922       S  0.75028896  0.68128487  0.10686649    -0.30600
H2923       H  0.79124871  0.64977457  0.10799767     0.10300
C2924       C  0.82242134  0.61409332  0.13426391     0.03600
C2925       C  0.83659196  0.59412718  0.12857926    -0.12900
C2926       C  0.85652425  0.59704668  0.11681304    -0.08600
C2927       C  0.86242462  0.62067222  0.11075524     0.07000
C2928       C  0.84837152  0.64066550  0.11662726    -0.13700
S2929       S  0.79628612  0.60956914  0.14881134    -0.30600
H2930       H  0.83211275  0.57610566  0.13333863     0.11300
S2931       S  0.88640118  0.62636298  0.09465181    -0.27700
H2932       H  0.85243622  0.65867141  0.11160325     0.08500
H2933       H  0.74761821  0.70672555  0.10879842     0.26900
H2934       H  0.79808424  0.58401352  0.14967368     0.21700
H2935       H  0.88136596  0.60566699  0.08397225     0.27000
H2936       H  0.85503402  0.66059082  0.15156258     0.15900
C2937       C  0.31212980  0.59695620  0.13594572    -0.11400
C2938       C  0.33271876  0.59400720  0.12481177     0.15100
C2939       C  0.33434023  0.57375935  0.11301832     0.02000
C2940       C  0.31554839  0.55663702  0.11284155    -0.15800
C2941       C  0.29484715  0.55956159  0.12391257    -0.10600
C2942       C  0.29323953  0.57989059  0.13571037     0.08700
C2943       C  0.35298684  0.61137214  0.12670651     0.09800
S2944       S  0.35978228  0.56889338  0.09782268    -0.24900
H2945       H  0.31684706  0.54116927  0.10367163     0.20000
S2946       S  0.26842204  0.58435495  0.15148549    -0.30600
H2947       H  0.31112775  0.61231237  0.14523364     0.10300
C2948       C  0.35112742  0.63537303  0.12044037     0.03600
C2949       C  0.37095126  0.65117420  0.12252173    -0.12900
C2950       C  0.39257482  0.64343330  0.13077541    -0.08600
C2951       C  0.39404234  0.61943311  0.13743514     0.07000
C2952       C  0.37436511  0.60362050  0.13511095    -0.13700
S2953       S  0.32386633  0.64556252  0.10924740    -0.30600
H2954       H  0.36977254  0.66950576  0.11738054     0.11300
S2955       S  0.41983717  0.60814016  0.14971771    -0.27700
H2956       H  0.37551803  0.58521013  0.14016529     0.08500
H2957       H  0.26587279  0.55948943  0.15550906     0.26900
H2958       H  0.33212116  0.66918837  0.10535115     0.21700
H2959       H  0.42282007  0.62973178  0.15986574     0.27000
H2960       H  0.36495326  0.59370193  0.09521884     0.15900
C2961       C  0.56819887  0.67591545  0.12541478    -0.11400
C2962       C  0.57565430  0.67162985  0.14300632     0.15100
C2963       C  0.55876778  0.66271475  0.15566771     0.02000
C2964       C  0.53419113  0.66077325  0.15099105    -0.15800
C2965       C  0.52628910  0.66803595  0.13405501    -0.10600
C2966       C  0.54364932  0.67407455  0.12076999     0.08700
C2967       C  0.59948782  0.68137348  0.14838520     0.09800
S2968       S  0.56695658  0.65622893  0.17846167    -0.24900
H2969       H  0.52089682  0.65604859  0.16121982     0.20000
S2970       S  0.53529950  0.68140308  0.09813149    -0.30600
H2971       H  0.58128647  0.68246792  0.11561953     0.10300
C2972       C  0.62129551  0.66840345  0.14518665     0.03600
C2973       C  0.64367824  0.68005018  0.14812903    -0.12900
C2974       C  0.64450698  0.70465026  0.15366173    -0.08600
C2975       C  0.62243694  0.71716280  0.15768697     0.07000
C2976       C  0.60020926  0.70537164  0.15500694    -0.13700
S2977       S  0.62048895  0.63747252  0.13662657    -0.30600
H2978       H  0.66053978  0.67043609  0.14505030     0.11300
S2979       S  0.62128159  0.74829946  0.16572291    -0.27700
H2980       H  0.58328380  0.71524907  0.15747250     0.08500
H2981       H  0.51327698  0.66823908  0.09820461     0.26900
H2982       H  0.64593883  0.63396653  0.13555875     0.21700
H2983       H  0.64232427  0.74636815  0.17630635     0.27000
H2984       H  0.59181663  0.65151270  0.17497252     0.15900
C2985       C  0.80396723  0.67723990  0.93513765    -0.11400
C2986       C  0.79338703  0.65471126  0.93075605     0.15100
C2987       C  0.76790350  0.65176706  0.93234610     0.02000
C2988       C  0.75352086  0.67150929  0.93792956    -0.15800
C2989       C  0.76386011  0.69446941  0.94156183    -0.10600
C2990       C  0.78952842  0.69713133  0.94057104     0.08700
C2991       C  0.80938070  0.63446515  0.92484925     0.09800
S2992       S  0.75249599  0.62364421  0.92679158    -0.24900
H2993       H  0.73387734  0.66913760  0.93855192     0.20000
S2994       S  0.80504103  0.72503690  0.94635066    -0.30600
H2995       H  0.82363855  0.67929587  0.93430382     0.10300
C2996       C  0.82151977  0.63484090  0.90812807     0.03600
C2997       C  0.83614948  0.61494833  0.90288769    -0.12900
C2998       C  0.83870343  0.59471024  0.91401213    -0.08600
C2999       C  0.82696560  0.59473054  0.93099639     0.07000
C3000       C  0.81223159  0.61447651  0.93611205    -0.13700
S3001       S  0.81758818  0.66018347  0.89318585    -0.30600
H3002       H  0.84527618  0.61491940  0.88994663     0.11300
S3003       S  0.83090320  0.57083752  0.94713136    -0.27700
H3004       H  0.80313950  0.61445402  0.94908698     0.08500
H3005       H  0.78956488  0.73074092  0.96099232     0.26900
H3006       H  0.83413517  0.65199930  0.87986227     0.21700
H3007       H  0.85588079  0.56703908  0.94341909     0.27000
H3008       H  0.76865719  0.61632908  0.91297037     0.15900
C3009       C  0.73968502  0.78160376  0.02896359    -0.11400
C3010       C  0.71793003  0.78788305  0.03798325     0.15100
C3011       C  0.69732895  0.79459365  0.02792999     0.02000
C3012       C  0.69801595  0.79207876  0.00924038    -0.15800
C3013       C  0.71910140  0.78359337  0.00015246    -0.10600
C3014       C  0.74060748  0.77948995  0.01015672     0.08700
C3015       C  0.71592447  0.78258477  0.05739998     0.09800
S3016       S  0.66907720  0.80462957  0.03831385    -0.24900
H3017       H  0.68153701  0.79579704  0.00179168     0.20000
S3018       S  0.76861610  0.76897269  0.99955477    -0.30600
H3019       H  0.75543852  0.77654116  0.03678111     0.10300
C3020       C  0.70388040  0.76138881  0.06316868     0.03600
C3021       C  0.70300962  0.75605010  0.08144992    -0.12900
C3022       C  0.71420312  0.77118537  0.09434440    -0.08600
C3023       C  0.72600519  0.79269364  0.08848288     0.07000
C3024       C  0.72700210  0.79794532  0.07010075    -0.13700
S3025       S  0.69058713  0.74038140  0.04712352    -0.30600
H3026       H  0.69404148  0.73948108  0.08563712     0.11300
S3027       S  0.73976229  0.81435153  0.10363091    -0.27700
H3028       H  0.73630085  0.81424359  0.06565988     0.08500
H3029       H  0.78342256  0.77047574  0.01484152     0.26900
H3030       H  0.68321713  0.72259160  0.05942989     0.21700
H3031       H  0.71987700  0.81447579  0.11572952     0.27000
H3032       H  0.67970953  0.81392113  0.05406058     0.15900
C3033       C  0.34566134  0.63387566  0.91225439    -0.11400
C3034       C  0.34696536  0.60962878  0.91782762     0.15100
C3035       C  0.36906903  0.60046741  0.92467011     0.02000
C3036       C  0.38942062  0.61573224  0.92575847    -0.15800
C3037       C  0.38811144  0.64016422  0.92043063    -0.10600
C3038       C  0.36601252  0.64915045  0.91328926     0.08700
C3039       C  0.32546122  0.59387502  0.91530874     0.09800
S3040       S  0.37239493  0.56956430  0.93231613    -0.24900
H3041       H  0.40620913  0.60864490  0.93129058     0.20000
S3042       S  0.36289341  0.67939147  0.90437105    -0.30600
H3043       H  0.32882334  0.64074155  0.90664850     0.10300
C3044       C  0.30540582  0.59484708  0.92725433     0.03600
C3045       C  0.28595327  0.57859895  0.92480639    -0.12900
C3046       C  0.28628523  0.56138717  0.91067977    -0.08600
C3047       C  0.30590051  0.56139990  0.89822368     0.07000
C3048       C  0.32537784  0.57742266  0.90080044    -0.13700
S3049       S  0.30527523  0.61584337  0.94611996    -0.30600
H3050       H  0.27092947  0.57858832  0.93436177     0.11300
S3051       S  0.30688349  0.54191701  0.87857451    -0.27700
H3052       H  0.34063181  0.57710089  0.89142086     0.08500
H3053       H  0.38634187  0.67972781  0.89646528     0.26900
H3054       H  0.28260060  0.60875959  0.95335554     0.21700
H3055       H  0.28150991  0.54249228  0.87568489     0.27000
H3056       H  0.34814482  0.56682345  0.93830132     0.15900
C3057       C  0.43195433  0.69654562  0.01686726    -0.11400
C3058       C  0.43490319  0.72075558  0.02262876     0.15100
C3059       C  0.43776579  0.73917066  0.00975308     0.02000
C3060       C  0.43901597  0.73278718  0.99146403    -0.15800
C3061       C  0.43708274  0.70834050  0.98569767    -0.10600
C3062       C  0.43250371  0.69020495  0.99866638     0.08700
C3063       C  0.43690626  0.72545623  0.04217492     0.09800
S3064       S  0.44037501  0.77095066  0.01588710    -0.24900
H3065       H  0.44217005  0.74694270  0.98172959     0.20000
S3066       S  0.42670694  0.65867913  0.99299901    -0.30600
H3067       H  0.42939345  0.68238275  0.02670321     0.10300
C3068       C  0.41643066  0.72389659  0.05369850     0.03600
C3069       C  0.41986636  0.72323234  0.07232978    -0.12900
C3070       C  0.44343986  0.72402113  0.07957890    -0.08600
C3071       C  0.46363843  0.72804042  0.06806537     0.07000
C3072       C  0.46020639  0.72846314  0.04950785    -0.13700
S3073       S  0.38607667  0.72154751  0.04460067    -0.30600
H3074       H  0.40436301  0.72023010  0.08113538     0.11300
S3075       S  0.49429190  0.73206258  0.07625722    -0.27700
H3076       H  0.47593548  0.73011500  0.04068468     0.08500
H3077       H  0.41266755  0.66394853  0.97781069     0.26900
H3078       H  0.37348014  0.72427069  0.06103082     0.21700
H3079       H  0.48726825  0.74161624  0.09313500     0.27000
H3080       H  0.42665422  0.76957118  0.03186300     0.15900
C3081       C  0.59940549  0.70764541  0.95056401    -0.11400
C3082       C  0.59992872  0.68394238  0.94330719     0.15100
C3083       C  0.62229369  0.67362150  0.93758123     0.02000
C3084       C  0.64361668  0.68750443  0.93877873    -0.15800
C3085       C  0.64306568  0.71160639  0.94551453    -0.10600
C3086       C  0.62066286  0.72164738  0.95174367     0.08700
C3087       C  0.57622878  0.67239963  0.93957839     0.09800
S3088       S  0.62461060  0.64318161  0.92825405    -0.24900
H3089       H  0.66069429  0.67956746  0.93404752     0.20000
S3090       S  0.61875284  0.75196290  0.96154728    -0.30600
H3091       H  0.58203346  0.71539876  0.95481518     0.10300
C3092       C  0.56079246  0.66453780  0.95354253     0.03600
C3093       C  0.53589078  0.66094691  0.95012652    -0.12900
C3094       C  0.52647055  0.66528793  0.93304334    -0.08600
C3095       C  0.54251420  0.67038775  0.91871201     0.07000
C3096       C  0.56726815  0.67388904  0.92211987    -0.13700
S3097       S  0.57246239  0.66105583  0.97591008    -0.30600
H3098       H  0.52343942  0.65713214  0.96110043     0.11300
S3099       S  0.53198159  0.67488503  0.89615526    -0.27700
H3100       H  0.57926122  0.67965269  0.91135249     0.08500
H3101       H  0.59320248  0.75286618  0.96368919     0.26900
H3102       H  0.55148250  0.64990905  0.98306993     0.21700
H3103       H  0.51060257  0.66091808  0.89790175     0.27000
H3104       H  0.60404995  0.63380181  0.93721161     0.15900
loop_ 
_geom_bond_atom_site_label_1 
_geom_bond_atom_site_label_2 
_geom_bond_distance 
_geom_bond_site_symmetry_2 
_ccdc_geom_bond_type 
O1            C4   1.270       .  A
O1           Cd6   2.519       .  S
C2           O11   1.265       .  A
C2            O7   1.269       .  A
C2          C158   1.481       .  S
O3            C9   1.262       .  A
O3           Cd6   2.400       .  S
C4           O12   1.262       .  A
C4         C3061   1.487       .  S
C5           O10   1.268       .  A
C5            O8   1.266       .  A
C5         C3037   1.476       .  S
Cd6          O13   2.488       .  S
Cd6          O12   2.429       .  S
Cd6          O11   2.481       .  S
Cd6           O7   2.472       .  S
Cd6          O10   2.454       .  S
Cd6           O8   2.431       .  S
C9           O13   1.267       .  A
C9         C3094   1.462       .  S
O14          C17   1.266       .  A
O14         Cd19   2.499       .  S
C15          O24   1.262       .  A
C15          O20   1.265       .  A
C15        C3013   1.490   1_556  S
O16          C22   1.263       .  A
O16         Cd19   2.453       .  S
C17          O25   1.260       .  A
C17         C194   1.480       .  S
C18          O23   1.266       .  A
C18          O21   1.269       .  A
C18        C2989   1.475       .  S
Cd19         O26   2.446       .  S
Cd19         O25   2.474       .  S
Cd19         O24   2.462       .  S
Cd19         O20   2.512       .  S
Cd19         O23   2.403       .  S
Cd19         O21   2.452       .  S
C22          O26   1.265       .  A
C22        C3085   1.478       .  S
O27          C30   1.266       .  A
O27         Cd32   2.495       .  S
C28          O37   1.263       .  A
C28          O33   1.269       .  A
C28        C3070   1.477       .  S
O29          C35   1.267       .  A
O29         Cd32   2.462       .  S
C30          O38   1.261       .  A
C30         C330   1.477       .  S
C31          O36   1.266       .  A
C31          O34   1.266       .  A
C31        C2950   1.474       .  S
Cd32         O39   2.401       .  S
Cd32         O38   2.458       .  S
Cd32         O37   2.430       .  S
Cd32         O33   2.504       .  S
Cd32         O36   2.442       .  S
Cd32         O34   2.432       .  S
C35          O39   1.264       .  A
C35        C2965   1.463       .  S
O40          C43   1.268       .  A
O40         Cd45   2.512       .  S
C41          O50   1.264       .  A
C41          O46   1.264       .  A
C41         C318   1.474       .  S
O42          C48   1.266       .  A
O42         Cd45   2.459       .  S
C43          O51   1.263       .  A
C43        C3022   1.492       .  S
C44          O49   1.264       .  A
C44          O47   1.267       .  A
C44        C2917   1.470       .  S
Cd45         O52   2.425       .  S
Cd45         O51   2.436       .  S
Cd45         O50   2.475       .  S
Cd45         O46   2.450       .  S
Cd45         O49   2.416       .  S
Cd45         O47   2.478       .  S
C48          O52   1.264       .  A
C48        C2974   1.474       .  S
O53          C56   1.268       .  A
O53         Cd58   2.514       .  S
C54          O63   1.264       .  A
C54          O59   1.266       .  A
C54         C146   1.479       .  S
O55          C61   1.265       .  A
O55         Cd58   2.454       .  S
C56          O64   1.262       .  A
C56        C2869   1.495       .  S
C57          O62   1.261       .  A
C57          O60   1.267       .  A
C57        C2854   1.469       .  S
Cd58         O65   2.444       .  S
Cd58         O64   2.448       .  S
Cd58         O63   2.480       .  S
Cd58         O59   2.468       .  S
Cd58         O62   2.398       .  S
Cd58         O60   2.489       .  S
C61          O65   1.264       .  A
C61        C2893   1.476   1_545  S
O66          C69   1.269       .  A
O66         Cd71   2.456       .  S
C67          O76   1.264       .  A
C67          O72   1.272       .  A
C67        C2821   1.486       .  S
O68          C74   1.270       .  A
O68         Cd71   2.481       .  S
C69          O77   1.266       .  A
C69         C134   1.477       .  S
C70          O75   1.270       .  A
C70          O73   1.266       .  A
C70        C2797   1.473       .  S
Cd71         O78   2.399       .  S
Cd71         O77   2.476       .  S
Cd71         O76   2.411       .  S
Cd71         O72   2.515       .  S
Cd71         O75   2.468       .  S
Cd71         O73   2.408       .  S
C74          O78   1.263       .  A
C74        C2902   1.480       .  S
O79          C82   1.264       .  A
O79         Cd84   2.459       .  S
C80          O89   1.264       .  A
C80          O85   1.269       .  A
C80        C2878   1.486       .  S
O81          C87   1.264       .  A
O81         Cd84   2.473       .  S
C82          O90   1.262       .  A
C82         C258   1.474       .  S
C83          O88   1.266       .  A
C83          O86   1.268       .  A
C83        C2758   1.473       .  S
Cd84         O91   2.435       .  S
Cd84         O90   2.480       .  S
Cd84         O89   2.446       .  S
Cd84         O85   2.509       .  S
Cd84         O88   2.420       .  S
Cd84         O86   2.452       .  S
C87          O91   1.263       .  A
C87        C2773   1.469   1_545  S
O92          C95   1.270       .  A
O92         Cd97   2.491       .  S
C93         O102   1.262       .  A
C93          O98   1.268       .  A
C93         C270   1.473       .  S
O94         C100   1.271       .  A
O94         Cd97   2.491       .  S
C95         O103   1.265       .  A
C95        C2830   1.470       .  S
C96         O101   1.271       .  A
C96          O99   1.267       .  A
C96        C2725   1.483       .  S
Cd97        O104   2.382       .  S
Cd97        O103   2.411       .  S
Cd97        O102   2.421       .  S
Cd97         O98   2.492       .  S
Cd97        O101   2.474       .  S
Cd97         O99   2.416       .  S
C100        O104   1.261       .  A
C100       C2782   1.477       .  S
C105        C106   1.540       .  S
C105        C111   1.532       .  S
C105        C109   1.548       .  S
C105       C2653   1.548       .  S
C106        H113   1.086       .  S
C106        C107   1.358       .  D
C107       C2701   1.477       .  S
C107        C108   1.536       .  S
C108        C112   1.538       .  S
C108        C110   1.536       .  S
C108        H114   1.106       .  S
C109        H115   1.082       .  S
C109        C110   1.375       .  D
C110        C363   1.479       .  S
C111        H116   1.086       .  S
C111        C112   1.371       .  D
C112       C2677   1.495       .  S
C117        C118   1.545       .  S
C117        C123   1.542       .  S
C117        C121   1.533       .  S
C117       C2614   1.549       .  S
C118        H125   1.084   1_565  S
C118        C119   1.361       .  D
C119       C2638   1.480       .  S
C119        C120   1.530       .  S
C120        C124   1.548       .  S
C120        C122   1.541       .  S
C120        H126   1.106       .  S
C121        H127   1.086   1_565  S
C121        C122   1.370       .  D
C122        C350   1.474       .  S
C123        H128   1.082       .  S
C123        C124   1.374       .  D
C124       C2710   1.509       .  S
C129        C130   1.538       .  S
C129        C135   1.548       .  S
C129        C133   1.550       .  S
C129       C2557   1.549       .  S
C130        H137   1.086       .  S
C130        C131   1.365       .  D
C131       C2686   1.482       .  S
C131        C132   1.530       .  S
C132        C136   1.532       .  S
C132        C134   1.534       .  S
C132        H138   1.111       .  S
C133        H139   1.084       .  S
C133        C134   1.375       .  D
C135        H140   1.085       .  S
C135        C136   1.362       .  D
C136       C2581   1.487       .  S
C141        C142   1.545       .  S
C141        C147   1.532       .  S
C141        C145   1.550       .  S
C141       C2542   1.546       .  S
C142        H149   1.087   1_545  S
C142        C143   1.361   1_545  D
C143       C2590   1.481       .  S
C143        C144   1.533   1_565  S
C144        C148   1.533       .  S
C144        C146   1.539       .  S
C144        H150   1.110       .  S
C145        H151   1.080       .  S
C145        C146   1.377       .  D
C147        H152   1.087       .  S
C147        C148   1.360       .  D
C148       C2629   1.480       .  S
C153        C154   1.537       .  S
C153        C159   1.550       .  S
C153        C157   1.545       .  S
C153       C2662   1.548       .  S
C154        H161   1.087       .  S
C154        C155   1.359       .  D
C155       C2485   1.477       .  S
C155        C156   1.535       .  S
C156        C160   1.530       .  S
C156        C158   1.536       .  S
C156        H162   1.111       .  S
C157        H163   1.086       .  S
C157        C158   1.374       .  D
C159        H164   1.081       .  S
C159        C160   1.368       .  D
C160       C2509   1.481       .  S
C165        C166   1.539       .  S
C165        C171   1.535       .  S
C165        C169   1.559       .  S
C165       C2605   1.542       .  S
C166        H173   1.087       .  S
C166        C167   1.362       .  D
C167       C2518   1.474       .  S
C167        C168   1.529       .  S
C168        C172   1.532       .  S
C168        C170   1.535       .  S
C168        H174   1.111       .  S
C169        H175   1.083   1_565  S
C169        C170   1.380       .  D
C170        C202   1.481       .  S
C171        H176   1.087       .  S
C171        C172   1.356       .  D
C172       C2470   1.475       .  S
C177        C178   1.539       .  S
C177        C183   1.542       .  S
C177        C181   1.533       .  S
C177       C2533   1.543       .  S
C178        H185   1.085       .  S
C178        C179   1.366       .  D
C179       C2461   1.493       .  S
C179        C180   1.542       .  S
C180        C184   1.540       .  S
C180        C182   1.541       .  S
C180        H186   1.110       .  S
C181        H187   1.086       .  S
C181        C182   1.370       .  D
C182        C215   1.479       .  S
C183        H188   1.084       .  S
C183        C184   1.363       .  D
C184       C2437   1.480   1_545  S
C189        C190   1.542       .  S
C189        C195   1.544       .  S
C189        C193   1.538       .  S
C189       C2566   1.548       .  S
C190        H197   1.083       .  S
C190        C191   1.364       .  D
C191       C2446   1.481       .  S
C191        C192   1.532       .  S
C192        C196   1.546       .  S
C192        C194   1.539       .  S
C192        H198   1.107       .  S
C193        H199   1.086       .  S
C193        C194   1.373       .  D
C195        H200   1.084       .  S
C195        C196   1.367       .  D
C196       C2494   1.505       .  S
O201        C204   1.267       .  A
O201       Cd206   2.529   1_565  S
C202        O211   1.262   1_565  A
C202        O207   1.265       .  A
O203        C209   1.265       .  A
O203       Cd206   2.417       .  S
C204        O212   1.262   1_565  A
C204       C2389   1.488       .  S
C205        O210   1.265       .  A
C205        O208   1.266       .  A
C205       C2422   1.488       .  S
Cd206       O213   2.455       .  S
Cd206       O212   2.458       .  S
Cd206       O211   2.511       .  S
Cd206       O207   2.457   1_545  S
Cd206       O210   2.466       .  S
Cd206       O208   2.437       .  S
C209        O213   1.267       .  A
C209       C2365   1.469       .  S
O214        C217   1.271       .  A
O214       Cd219   2.515       .  S
C215        O224   1.262       .  A
C215        O220   1.269       .  A
O216        C222   1.266       .  A
O216       Cd219   2.495       .  S
C217        O225   1.265       .  A
C217       C2350   1.491       .  S
C218        O223   1.268       .  A
C218        O221   1.267       .  A
C218       C2326   1.476       .  S
Cd219       O226   2.419       .  S
Cd219       O225   2.425       .  S
Cd219       O224   2.439       .  S
Cd219       O220   2.511       .  S
Cd219       O223   2.458       .  S
Cd219       O221   2.444       .  S
C222        O226   1.261       .  A
C222       C2413   1.469       .  S
O227        C230   1.270       .  A
O227       Cd232   2.527   1_565  S
C228        O237   1.264   1_565  A
C228        O233   1.266       .  A
C228        C342   1.478       .  S
O229        C235   1.263       .  A
O229       Cd232   2.451       .  S
C230        O238   1.261   1_565  A
C230       C2398   1.481       .  S
C231        O236   1.265       .  A
C231        O234   1.269       .  A
C231       C2269   1.470       .  S
Cd232       O239   2.448       .  S
Cd232       O238   2.423       .  S
Cd232       O237   2.463       .  S
Cd232       O233   2.482   1_545  S
Cd232       O236   2.408       .  S
Cd232       O234   2.473       .  S
C235        O239   1.265       .  A
C235       C2293   1.480       .  S
O240        C243   1.271       .  A
O240       Cd245   2.533       .  S
C241        O250   1.264       .  A
C241        O246   1.269       .  A
C241        C306   1.478       .  S
O242        C248   1.269       .  A
O242       Cd245   2.446       .  S
C243        O251   1.264       .  A
C243       C2341   1.488       .  S
C244        O249   1.268       .  A
C244        O247   1.263       .  A
C244       C2302   1.465       .  S
Cd245       O252   2.418       .  S
Cd245       O251   2.424       .  S
Cd245       O250   2.464       .  S
Cd245       O246   2.477       .  S
Cd245       O249   2.485       .  S
Cd245       O247   2.399       .  S
C248        O252   1.265       .  A
C248       C2245   1.479       .  S
C253        C254   1.543       .  S
C253        C259   1.546       .  S
C253        C257   1.542       .  S
C253       C2182   1.551       .  S
C254        H261   1.081       .  S
C254        C255   1.362       .  D
C255       C2221   1.475       .  S
C255        C256   1.533       .  S
C256        C260   1.540   1_545  S
C256        C258   1.534       .  S
C256        H262   1.109   1_545  S
C257        H263   1.086       .  S
C257        C258   1.372       .  D
C259        H264   1.085   1_545  S
C259        C260   1.371   1_545  D
C260       C2206   1.504       .  S
C265        C266   1.552       .  S
C265        C271   1.539       .  S
C265        C269   1.530       .  S
C265       C2125   1.540       .  S
C266        H273   1.084       .  S
C266        C267   1.366       .  D
C267       C2197   1.481       .  S
C267        C268   1.534       .  S
C268        C272   1.533       .  S
C268        C270   1.540       .  S
C268        H274   1.111       .  S
C269        H275   1.086       .  S
C269        C270   1.369       .  D
C271        H276   1.084       .  S
C271        C272   1.362       .  D
C272       C2158   1.478       .  S
C277        C278   1.544       .  S
C277        C283   1.543       .  S
C277        C281   1.544       .  S
C277       C2077   1.540       .  S
C278        H285   1.080       .  S
C278        C279   1.364       .  D
C279       C2149   1.478       .  S
C279        C280   1.530       .  S
C280        C284   1.532       .  S
C280        C282   1.533       .  S
C280        H286   1.111       .  S
C281        H287   1.086       .  S
C281        C282   1.374       .  D
C282        C389   1.477       .  S
C283        H288   1.087       .  S
C283        C284   1.358       .  D
C284       C2110   1.473       .  S
C289        C290   1.539       .  S
C289        C295   1.539       .  S
C289        C293   1.549       .  S
C289       C2062   1.547       .  S
C290        H297   1.086       .  S
C290        C291   1.368       .  D
C291       C2101   1.500       .  S
C291        C292   1.542       .  S
C292        C296   1.535       .  S
C292        C294   1.534       .  S
C292        H298   1.109       .  S
C293        H299   1.081       .  S
C293        C294   1.370       .  D
C294        C376   1.477       .  S
C295        H300   1.086       .  S
C295        C296   1.366       .  D
C296       C2230   1.483       .  S
C301        C302   1.533   1_545  S
C301        C307   1.533       .  S
C301        C305   1.551       .  S
C301       C2173   1.542       .  S
C302        H309   1.087       .  S
C302        C303   1.356       .  D
C303       C2014   1.472       .  S
C303        C304   1.531   1_565  S
C304        C308   1.546       .  S
C304        C306   1.543       .  S
C304        H310   1.109   1_545  S
C305        H311   1.083       .  S
C305        C306   1.379       .  D
C307        H312   1.087       .  S
C307        C308   1.366       .  D
C308       C2038   1.501       .  S
C313        C314   1.538       .  S
C313        C319   1.535       .  S
C313        C317   1.548       .  S
C313       C2134   1.538       .  S
C314        H321   1.087       .  S
C314        C315   1.360       .  D
C315       C1981   1.489       .  S
C315        C316   1.536       .  S
C316        C320   1.538       .  S
C316        C318   1.540       .  S
C316        H322   1.110       .  S
C317        H323   1.083       .  S
C317        C318   1.374       .  D
C319        H324   1.087       .  S
C319        C320   1.364       .  D
C320       C2005   1.485       .  S
C325        C326   1.546       .  S
C325        C331   1.528       .  S
C325        C329   1.543       .  S
C325       C2086   1.544       .  S
C326        H333   1.085       .  S
C326        C327   1.366       .  D
C327       C1957   1.485       .  S
C327        C328   1.536       .  S
C328        C332   1.543       .  S
C328        C330   1.540       .  S
C328        H334   1.110       .  S
C329        H335   1.084       .  S
C329        C330   1.373       .  D
C331        H336   1.087       .  S
C331        C332   1.360       .  D
C332       C1990   1.488       .  S
C337        C338   1.548       .  S
C337        C343   1.540       .  S
C337        C341   1.534       .  S
C337       C2053   1.546       .  S
C338        H345   1.085       .  S
C338        C339   1.361       .  D
C339       C2029   1.488       .  S
C339        C340   1.535       .  S
C340        C344   1.542       .  S
C340        C342   1.542       .  S
C340        H346   1.109       .  S
C341        H347   1.086   1_565  S
C341        C342   1.371       .  D
C343        H348   1.083       .  S
C343        C344   1.369       .  D
C344       C1966   1.493       .  S
O349        C352   1.270       .  A
O349       Cd354   2.511       .  S
C350        O359   1.263       .  A
C350        O355   1.269       .  A
O351        C357   1.270       .  A
O351       Cd354   2.436   1_545  S
C352        O360   1.264       .  A
C352       C1909   1.478   1_565  S
C353        O358   1.269       .  A
C353        O356   1.261       .  A
C353       C1942   1.486       .  S
Cd354       O361   2.425   1_565  S
Cd354       O360   2.431       .  S
Cd354       O359   2.431       .  S
Cd354       O355   2.488       .  S
Cd354       O358   2.513       .  S
Cd354       O356   2.403       .  S
C357        O361   1.268       .  A
C357       C1885   1.474       .  S
O362        C365   1.268       .  A
O362       Cd367   2.497       .  S
C363        O372   1.263       .  A
C363        O368   1.266       .  A
O364        C370   1.262       .  A
O364       Cd367   2.465       .  S
C365        O373   1.264       .  A
C365       C1861   1.495       .  S
C366        O371   1.263       .  A
C366        O369   1.265       .  A
C366       C1837   1.479       .  S
Cd367       O374   2.463       .  S
Cd367       O373   2.470       .  S
Cd367       O372   2.482       .  S
Cd367       O368   2.466       .  S
Cd367       O371   2.408       .  S
Cd367       O369   2.487       .  S
C370        O374   1.266       .  A
C370       C1933   1.487       .  S
O375        C378   1.271       .  A
O375       Cd380   2.516       .  S
C376        O385   1.262       .  A
C376        O381   1.269       .  A
O377        C383   1.268       .  A
O377       Cd380   2.495       .  S
C378        O386   1.265       .  A
C378       C1918   1.488       .  S
C379        O384   1.269   1_545  A
C379        O382   1.267       .  A
C379       C1789   1.479       .  S
Cd380       O387   2.398       .  S
Cd380       O386   2.434       .  S
Cd380       O385   2.450       .  S
Cd380       O381   2.492       .  S
Cd380       O384   2.465       .  S
Cd380       O382   2.449   1_565  S
C383        O387   1.261       .  A
C383       C1813   1.465       .  S
O388        C391   1.269       .  A
O388       Cd393   2.544       .  S
C389        O398   1.262       .  A
C389        O394   1.267       .  A
O390        C396   1.266       .  A
O390       Cd393   2.400       .  S
C391        O399   1.261       .  A
C391       C1870   1.492       .  S
C392        O397   1.263       .  A
C392        O395   1.266       .  A
C392       C1822   1.488       .  S
Cd393       O400   2.465       .  S
Cd393       O399   2.427       .  S
Cd393       O398   2.478       .  S
Cd393       O394   2.462       .  S
Cd393       O397   2.455       .  S
Cd393       O395   2.464       .  S
C396        O400   1.269       .  A
C396       C1765   1.473       .  S
O401        C404   1.270       .  A
O401       Cd406   2.527       .  S
C402        O411   1.263       .  A
C402        O407   1.267       .  A
C402        C582   1.481       .  S
O403        C409   1.267       .  A
O403       Cd406   2.432       .  S
C404        O412   1.264       .  A
C404       C1726   1.496       .  S
C405        O410   1.266       .  A
C405        O408   1.265       .  A
C405       C1750   1.483       .  S
Cd406       O413   2.449       .  S
Cd406       O412   2.441       .  S
Cd406       O411   2.492       .  S
Cd406       O407   2.477       .  S
Cd406       O410   2.479       .  S
Cd406       O408   2.414       .  S
C409        O413   1.267       .  A
C409       C2317   1.475       .  S
O414        C417   1.265       .  A
O414       Cd419   2.459       .  S
C415        O424   1.263       .  A
C415        O420   1.268       .  A
C415       C1693   1.493       .  S
O416        C422   1.264       .  A
O416       Cd419   2.425       .  S
C417        O425   1.264       .  A
C417        C570   1.478       .  S
C418        O423   1.265       .  A
C418        O421   1.264       .  A
C418       C1741   1.472       .  S
Cd419       O426   2.449       .  S
Cd419       O425   2.483       .  S
Cd419       O424   2.465       .  S
Cd419       O420   2.487       .  S
Cd419       O423   2.486       .  S
Cd419       O421   2.430       .  S
C422        O426   1.267       .  A
C422       C2998   1.469       .  S
O427        C430   1.267       .  A
O427       Cd432   2.468       .  S
C428        O437   1.265       .  A
C428        O433   1.269       .  A
C428       C1717   1.489       .  S
O429        C435   1.267       .  A
O429       Cd432   2.419       .  S
C430        O438   1.261       .  A
C430        C706   1.479       .  S
C431        O436   1.265       .  A
C431        O434   1.260       .  A
C431       C1678   1.468       .  S
Cd432       O439   2.434       .  S
Cd432       O438   2.495       .  S
Cd432       O437   2.453       .  S
Cd432       O433   2.505       .  S
Cd432       O436   2.501       .  S
Cd432       O434   2.421       .  S
C435        O439   1.268       .  A
C435       C2254   1.467       .  S
O440        C443   1.272       .  A
O440       Cd445   2.543       .  S
C441        O450   1.262       .  A
C441        O446   1.271       .  A
C441        C742   1.483       .  S
O442        C448   1.267       .  A
O442       Cd445   2.421       .  S
C443        O451   1.263       .  A
C443       C1702   1.492       .  S
C444        O449   1.268       .  A
C444        O447   1.264       .  A
C444       C1669   1.480       .  S
Cd445       O452   2.455       .  S
Cd445       O451   2.438       .  S
Cd445       O450   2.484       .  S
Cd445       O446   2.486       .  S
Cd445       O449   2.466       .  S
Cd445       O447   2.420       .  S
C448        O452   1.268       .  A
C448       C2926   1.476       .  S
O453        C456   1.269       .  A
O453       Cd458   2.514       .  S
C454        O463   1.262       .  A
C454        O459   1.269       .  A
C454        C534   1.472       .  S
O455        C461   1.268       .  A
O455       Cd458   2.433       .  S
C456        O464   1.263       .  A
C456       C1621   1.476       .  S
C457        O462   1.268       .  A
C457        O460   1.265       .  A
C457       C1645   1.482       .  S
Cd458       O465   2.442       .  S
Cd458       O464   2.429       .  S
Cd458       O463   2.455       .  S
Cd458       O459   2.461       .  S
Cd458       O462   2.489       .  S
Cd458       O460   2.409       .  S
C461        O465   1.266       .  A
C461       C1846   1.471       .  S
O466        C469   1.270       .  A
O466       Cd471   2.512       .  S
C467        O476   1.261       .  A
C467        O472   1.266       .  A
C467        C546   1.476       .  S
O468        C474   1.263       .  A
O468       Cd471   2.479       .  S
C469        O477   1.263       .  A
C469       C1597   1.489       .  S
C470        O475   1.266       .  A
C470        O473   1.268       .  A
C470       C2806   1.479       .  S
Cd471       O478   2.458       .  S
Cd471       O477   2.448       .  S
Cd471       O476   2.458       .  S
Cd471       O472   2.488       .  S
Cd471       O475   2.423       .  S
Cd471       O473   2.451       .  S
C474        O478   1.263       .  A
C474       C1654   1.473       .  S
O479        C482   1.270       .  A
O479       Cd484   2.517       .  S
C480        O489   1.262       .  A
C480        O485   1.267       .  A
C480        C670   1.477       .  S
O481        C487   1.266       .  A
O481       Cd484   2.490       .  S
C482        O490   1.262       .  A
C482       C1630   1.481       .  S
C483        O488   1.268       .  A
C483        O486   1.268       .  A
C483       C1774   1.470       .  S
Cd484       O491   2.435       .  S
Cd484       O490   2.421       .  S
Cd484       O489   2.457       .  S
Cd484       O485   2.489       .  S
Cd484       O488   2.419       .  S
Cd484       O486   2.446       .  S
C487        O491   1.263       .  A
C487       C1573   1.480       .  S
O492        C495   1.266       .  A
O492       Cd497   2.473       .  S
C493        O502   1.261       .  A
C493        O498   1.269       .  A
C493       C1606   1.485       .  S
O494        C500   1.268       .  A
O494       Cd497   2.483       .  S
C495        O503   1.265       .  A
C495        C658   1.483       .  S
C496        O501   1.268       .  A
C496        O499   1.266       .  A
C496       C2734   1.480       .  S
Cd497       O504   2.433       .  S
Cd497       O503   2.502       .  S
Cd497       O502   2.437       .  S
Cd497       O498   2.530       .  S
Cd497       O501   2.458       .  S
Cd497       O499   2.452       .  S
C500        O504   1.264       .  A
C500       C1582   1.474       .  S
C505        C506   1.547       .  S
C505        C511   1.540       .  S
C505        C509   1.541       .  S
C505       C1510   1.544       .  S
C506        H513   1.081       .  S
C506        C507   1.364       .  D
C507       C1525   1.476       .  S
C507        C508   1.533       .  S
C508        C512   1.537       .  S
C508        C510   1.535       .  S
C508        H514   1.111       .  S
C509        H515   1.086       .  S
C509        C510   1.371       .  D
C510        C763   1.476       .  S
C511        H516   1.087       .  S
C511        C512   1.360       .  D
C512       C1558   1.480       .  S
C517        C518   1.540       .  S
C517        C523   1.540       .  S
C517        C521   1.543       .  S
C517       C1453   1.547       .  S
C518        H525   1.086       .  S
C518        C519   1.369       .  D
C519       C1549   1.508       .  S
C519        C520   1.542       .  S
C520        C524   1.535       .  S
C520        C522   1.543       .  S
C520        H526   1.107       .  S
C521        H527   1.083       .  S
C521        C522   1.373       .  D
C522        C750   1.481       .  S
C523        H528   1.086       .  S
C523        C524   1.358       .  D
C524       C1486   1.475       .  S
C529        C530   1.539       .  S
C529        C535   1.549       .  S
C529        C533   1.546       .  S
C529       C1405   1.547       .  S
C530        H537   1.087       .  S
C530        C531   1.365       .  D
C531       C1477   1.475       .  S
C531        C532   1.526       .  S
C532        C536   1.526       .  S
C532        C534   1.531       .  S
C532        H538   1.111       .  S
C533        H539   1.085       .  S
C533        C534   1.373       .  D
C535        H540   1.078       .  S
C535        C536   1.360       .  D
C536       C1438   1.471       .  S
C541        C542   1.548       .  S
C541        C547   1.533       .  S
C541        C545   1.537       .  S
C541       C1390   1.542       .  S
C542        H549   1.084       .  S
C542        C543   1.367       .  D
C543       C1429   1.491       .  S
C543        C544   1.536       .  S
C544        C548   1.538       .  S
C544        C546   1.535       .  S
C544        H550   1.110       .  S
C545        H551   1.086       .  S
C545        C546   1.372       .  D
C547        H552   1.085       .  S
C547        C548   1.360       .  D
C548       C1534   1.472       .  S
C553        C554   1.539       .  S
C553        C559   1.546       .  S
C553        C557   1.537       .  S
C553       C1414   1.548       .  S
C554        H561   1.086       .  S
C554        C555   1.367       .  D
C555       C1342   1.489       .  S
C555        C556   1.537       .  S
C556        C560   1.538       .  S
C556        C558   1.540       .  S
C556        H562   1.109       .  S
C557        H563   1.086       .  S
C557        C558   1.371       .  D
C558        C615   1.479       .  S
C559        H564   1.082       .  S
C559        C560   1.362       .  D
C560       C1357   1.483       .  S
C565        C566   1.538       .  S
C565        C571   1.532       .  S
C565        C569   1.550       .  S
C565       C1381   1.539       .  S
C566        H573   1.087       .  S
C566        C567   1.365       .  D
C567       C1309   1.495       .  S
C567        C568   1.539       .  S
C568        C572   1.538       .  S
C568        C570   1.539       .  S
C568        H574   1.109       .  S
C569        H575   1.082       .  S
C569        C570   1.374       .  D
C571        H576   1.087       .  S
C571        C572   1.361       .  D
C572       C1333   1.480       .  S
C577        C578   1.536       .  S
C577        C583   1.535       .  S
C577        C581   1.555       .  S
C577       C1501   1.541       .  S
C578        H585   1.086       .  S
C578        C579   1.365       .  D
C579       C1285   1.475       .  S
C579        C580   1.531       .  S
C580        C584   1.535       .  S
C580        C582   1.537       .  S
C580        H586   1.111       .  S
C581        H587   1.082       .  S
C581        C582   1.377       .  D
C583        H588   1.087       .  S
C583        C584   1.357       .  D
C584       C1318   1.481       .  S
C589        C590   1.546       .  S
C589        C595   1.553       .  S
C589        C593   1.544       .  S
C589       C1462   1.545       .  S
C590        H597   1.086       .  S
C590        C591   1.366       .  D
C591       C1366   1.481       .  S
C591        C592   1.527       .  S
C592        C596   1.517       .  S
C592        C594   1.528       .  S
C592        H598   1.112       .  S
C593        H599   1.086       .  S
C593        C594   1.370       .  D
C594        C602   1.467       .  S
C595        H600   1.079       .  S
C595        C596   1.361       .  D
C596       C1294   1.469       .  S
O601        C604   1.263       .  A
O601       Cd606   2.416       .  S
C602        O611   1.263       .  A
C602        O607   1.266       .  A
O603        C609   1.266       .  A
O603       Cd606   2.461       .  S
C604        O612   1.269       .  A
C604       C1237   1.483       .  S
C605        O610   1.266       .  A
C605        O608   1.266       .  A
C605       C2374   1.469       .  S
Cd606       O613   2.410       .  S
Cd606       O612   2.500       .  S
Cd606       O611   2.473       .  S
Cd606       O607   2.426       .  S
Cd606       O610   2.410       .  S
Cd606       O608   2.431       .  S
C609        O613   1.265       .  A
C609       C1270   1.478       .  S
O614        C617   1.268       .  A
O614       Cd619   2.513       .  S
C615        O624   1.264       .  A
C615        O620   1.268       .  A
O616        C622   1.265       .  A
O616       Cd619   2.446       .  S
C617        O625   1.263       .  A
C617       C1213   1.486       .  S
C618        O623   1.267       .  A
C618        O621   1.264       .  A
C618       C1261   1.469       .  S
Cd619       O626   2.461       .  S
Cd619       O625   2.455       .  S
Cd619       O624   2.460       .  S
Cd619       O620   2.482       .  S
Cd619       O623   2.467       .  S
Cd619       O621   2.431       .  S
C622        O626   1.265       .  A
C622       C3046   1.475       .  S
O627        C630   1.262       .  A
O627       Cd632   2.420       .  S
C628        O637   1.261       .  A
C628        O633   1.268       .  A
C628        C718   1.473       .  S
O629        C635   1.267       .  A
O629       Cd632   2.408       .  S
C630        O638   1.270       .  A
C630       C1246   1.481       .  S
C631        O636   1.263       .  A
C631        O634   1.264       .  A
C631       C1198   1.486       .  S
Cd632       O639   2.439       .  S
Cd632       O638   2.516       .  S
Cd632       O637   2.459       .  S
Cd632       O633   2.472       .  S
Cd632       O636   2.461       .  S
Cd632       O634   2.444       .  S
C635        O639   1.270       .  A
C635       C2278   1.476       .  S
O640        C643   1.271       .  A
O640       Cd645   2.535       .  S
C641        O650   1.262       .  A
C641        O646   1.268       .  A
C641        C730   1.480       .  S
O642        C648   1.261       .  A
O642       Cd645   2.437       .  S
C643        O651   1.264       .  A
C643       C1222   1.499       .  S
C644        O649   1.267       .  A
C644        O647   1.268       .  A
C644       C2941   1.469       .  S
Cd645       O652   2.478       .  S
Cd645       O651   2.420       .  S
Cd645       O650   2.490       .  S
Cd645       O646   2.473       .  S
Cd645       O649   2.422       .  S
Cd645       O647   2.443       .  S
C648        O652   1.263       .  A
C648       C1189   1.468       .  S
C653        C654   1.552       .  S
C653        C659   1.546       .  S
C653        C657   1.545       .  S
C653       C1117   1.556       .  S
C654        H661   1.082       .  S
C654        C655   1.365       .  D
C655       C1141   1.483       .  S
C655        C656   1.526       .  S
C656        C660   1.528       .  S
C656        C658   1.537       .  S
C656        H662   1.111       .  S
C657        H663   1.086       .  S
C657        C658   1.373       .  D
C659        H664   1.085       .  S
C659        C660   1.365       .  D
C660       C1165   1.480       .  S
C665        C666   1.542       .  S
C665        C671   1.546       .  S
C665        C669   1.536       .  S
C665       C1069   1.543       .  S
C666        H673   1.086       .  S
C666        C667   1.362       .  D
C667       C1174   1.485       .  S
C667        C668   1.538       .  S
C668        C672   1.534       .  S
C668        C670   1.538       .  S
C668        H674   1.111       .  S
C669        H675   1.086       .  S
C669        C670   1.369       .  D
C671        H676   1.083       .  S
C671        C672   1.368       .  D
C672       C1093   1.480       .  S
C677        C678   1.552       .  S
C677        C683   1.535       .  S
C677        C681   1.547       .  S
C677       C1021   1.551       .  S
C678        H685   1.080       .  S
C678        C679   1.370       .  D
C679       C1054   1.499       .  S
C679        C680   1.538       .  S
C680        C684   1.535       .  S
C680        C682   1.532       .  S
C680        H686   1.108       .  S
C681        H687   1.085       .  S
C681        C682   1.376       .  D
C682        C791   1.485       .  S
C683        H688   1.087       .  S
C683        C684   1.358       .  D
C684       C1150   1.474       .  S
C689        C690   1.535       .  S
C689        C695   1.533       .  S
C689        C693   1.554       .  S
C689        C997   1.543       .  S
C690        H697   1.086       .  S
C690        C691   1.366       .  D
C691       C1102   1.494       .  S
C691        C692   1.539       .  S
C692        C696   1.536       .  S
C692        C694   1.539       .  S
C692        H698   1.109       .  S
C693        H699   1.083       .  S
C693        C694   1.378       .  D
C694        C778   1.480       .  S
C695        H700   1.087       .  S
C695        C696   1.358       .  D
C696       C1045   1.480       .  S
C701        C702   1.541       .  S
C701        C707   1.533       .  S
C701        C705   1.555       .  S
C701       C1030   1.546       .  S
C702        H709   1.085       .  S
C702        C703   1.364       .  D
C703        C958   1.482       .  S
C703        C704   1.530       .  S
C704        C708   1.530       .  S
C704        C706   1.534       .  S
C704        H710   1.110       .  S
C705        H711   1.083       .  S
C705        C706   1.380       .  D
C707        H712   1.087       .  S
C707        C708   1.361       .  D
C708        C973   1.481       .  S
C713        C714   1.553       .  S
C713        C719   1.537       .  S
C713        C717   1.541       .  S
C713       C1006   1.550       .  S
C714        H721   1.080       .  S
C714        C715   1.370       .  D
C715        C982   1.490       .  S
C715        C716   1.531       .  S
C716        C720   1.536       .  S
C716        C718   1.532       .  S
C716        H722   1.109       .  S
C717        H723   1.086       .  S
C717        C718   1.370       .  D
C719        H724   1.086       .  S
C719        C720   1.362       .  D
C720        C925   1.481       .  S
C725        C726   1.536       .  S
C725        C731   1.536       .  S
C725        C729   1.556       .  S
C725       C1078   1.543       .  S
C726        H733   1.087       .  S
C726        C727   1.359       .  D
C727        C934   1.478       .  S
C727        C728   1.531       .  S
C728        C732   1.528       .  S
C728        C730   1.536       .  S
C728        H734   1.111       .  S
C729        H735   1.083       .  S
C729        C730   1.381       .  D
C731        H736   1.087       .  S
C731        C732   1.361       .  D
C732        C901   1.473       .  S
C737        C738   1.537       .  S
C737        C743   1.533       .  S
C737        C741   1.557       .  S
C737       C1126   1.551       .  S
C738        H745   1.086       .  S
C738        C739   1.370       .  D
C739        C910   1.490   1_655  S
C739        C740   1.534       .  S
C740        C744   1.536       .  S
C740        C742   1.533       .  S
C740        H746   1.108       .  S
C741        H747   1.083       .  S
C741        C742   1.379       .  D
C743        H748   1.087       .  S
C743        C744   1.359       .  D
C744        C949   1.476       .  S
O749        C752   1.270       .  A
O749       Cd754   2.522       .  S
C750        O759   1.263       .  A
C750        O755   1.268       .  A
O751        C757   1.265       .  A
O751       Cd754   2.477       .  S
C752        O760   1.262       .  A
C752        C862   1.484       .  S
C753        O758   1.268       .  A
C753        O756   1.269       .  A
C753       C1894   1.476       .  S
Cd754       O761   2.419       .  S
Cd754       O760   2.437       .  S
Cd754       O759   2.474       .  S
Cd754       O755   2.487       .  S
Cd754       O758   2.431       .  S
Cd754       O756   2.445       .  S
C757        O761   1.264       .  A
C757        C877   1.479       .  S
O762        C765   1.269       .  A
O762       Cd767   2.516       .  S
C763        O772   1.261       .  A
C763        O768   1.266       .  A
O764        C770   1.266       .  A
O764       Cd767   2.430       .  S
C765        O773   1.263       .  A
C765        C829   1.485       .  S
C766        O771   1.264       .  A
C766        O769   1.266       .  A
C766        C886   1.465       .  S
Cd767       O774   2.441       .  S
Cd767       O773   2.449       .  S
Cd767       O772   2.466       .  S
Cd767       O768   2.475       .  S
Cd767       O771   2.391       .  S
Cd767       O769   2.473       .  S
C770        O774   1.266       .  A
C770       C2845   1.468       .  S
O775        C778   1.266       .  A
O775       Cd780   2.458       .  S
C776        O785   1.261       .  A
C776        O781   1.268       .  A
C776        C853   1.485       .  S
O777        C783   1.268       .  A
O777       Cd780   2.493       .  S
C778        O786   1.264       .  A
C779        O784   1.266       .  A
C779        O782   1.267       .  A
C779       C1798   1.488       .  S
Cd780       O787   2.414       .  S
Cd780       O786   2.504       .  S
Cd780       O785   2.449       .  S
Cd780       O781   2.528       .  S
Cd780       O784   2.454       .  S
Cd780       O782   2.458       .  S
C783        O787   1.263       .  A
C783        C814   1.479       .  S
O788        C791   1.267       .  A
O788       Cd793   2.487       .  S
C789        O798   1.262       .  A
C789        O794   1.270       .  A
C789        C838   1.493       .  S
O790        C796   1.268       .  A
O790       Cd793   2.402       .  S
C791        O799   1.261       .  A
C792        O797   1.262       .  A
C792        O795   1.262       .  A
C792        C805   1.471       .  S
Cd793       O800   2.437       .  S
Cd793       O799   2.502       .  S
Cd793       O798   2.445       .  S
Cd793       O794   2.534       .  S
Cd793       O797   2.479       .  S
Cd793       O795   2.449       .  S
C796        O800   1.269       .  A
C796       C2749   1.471       .  S
C801        C802   1.404   1_655  A
C801        C806   1.398       .  A
C801        H811   1.083   1_655  S
C802        C807   1.481       .  S
C802        C803   1.413   1_455  A
C803        C804   1.397       .  A
C803        S808   1.804   1_655  S
C804        C805   1.402       .  A
C804        H809   1.083       .  S
C805        C806   1.412       .  A
C806        S810   1.800       .  S
C807        C812   1.410       .  A
C807        C816   1.400       .  A
S808        H824   1.407       .  S
S810        H821   1.407       .  S
C812        C813   1.407       .  A
C812        S817   1.806       .  S
C813        C814   1.407       .  A
C813        H818   1.082       .  S
C814        C815   1.414       .  A
C815        C816   1.394       .  A
C815        S819   1.809       .  S
C816        H820   1.082       .  S
S817        H822   1.407       .  S
S819        H823   1.407       .  S
C825        C826   1.406       .  A
C825        C830   1.401       .  A
C825        H835   1.083       .  S
C826        C831   1.496       .  S
C826        C827   1.417       .  A
C827        C828   1.404       .  A
C827        S832   1.803       .  S
C828        C829   1.404       .  A
C828        H833   1.084       .  S
C829        C830   1.415       .  A
C830        S834   1.804       .  S
C831        C836   1.414       .  A
C831        C840   1.403       .  A
S832        H848   1.406       .  S
S834        H845   1.408       .  S
C836        C837   1.410       .  A
C836        S841   1.806       .  S
C837        C838   1.407       .  A
C837        H842   1.083       .  S
C838        C839   1.417       .  A
C839        C840   1.399       .  A
C839        S843   1.803       .  S
C840        H844   1.084       .  S
S841        H846   1.407       .  S
S843        H847   1.408       .  S
C849        C850   1.401       .  A
C849        C854   1.398       .  A
C849        H859   1.084       .  S
C850        C855   1.487       .  S
C850        C851   1.413       .  A
C851        C852   1.405       .  A
C851        S856   1.802       .  S
C852        C853   1.405       .  A
C852        H857   1.084       .  S
C853        C854   1.416       .  A
C854        S858   1.802       .  S
C855        C860   1.411       .  A
C855        C864   1.401       .  A
S856        H872   1.406       .  S
S858        H869   1.407       .  S
C860        C861   1.408       .  A
C860        S865   1.805       .  S
C861        C862   1.405       .  A
C861        H866   1.083       .  S
C862        C863   1.416       .  A
C863        C864   1.400       .  A
C863        S867   1.804       .  S
C864        H868   1.084       .  S
S865        H870   1.407       .  S
S867        H871   1.407       .  S
C873        C874   1.400       .  A
C873        C878   1.401       .  A
C873        H883   1.084       .  S
C874        C879   1.470       .  S
C874        C875   1.410       .  A
C875        C876   1.391       .  A
C875        S880   1.807       .  S
C876        C877   1.405       .  A
C876        H881   1.084       .  S
C877        C878   1.417       .  A
C878        S882   1.798       .  S
C879        C884   1.407       .  A
C879        C888   1.402       .  A
S880        H896   1.404       .  S
S882        H893   1.407       .  S
C884        C885   1.394   1_455  A
C884        S889   1.807       .  S
C885        C886   1.400       .  A
C885        H890   1.083       .  S
C886        C887   1.412       .  A
C887        C888   1.400   1_655  A
C887        S891   1.800       .  S
C888        H892   1.083       .  S
S889        H894   1.407       .  S
S891        H895   1.405       .  S
C897        C898   1.402       .  A
C897        C902   1.402       .  A
C897        H907   1.084       .  S
C898        C903   1.470       .  S
C898        C899   1.411       .  A
C899        C900   1.389       .  A
C899        S904   1.807       .  S
C900        C901   1.400       .  A
C900        H905   1.083       .  S
C901        C902   1.412       .  A
C902        S906   1.802       .  S
C903        C908   1.404       .  A
C903        C912   1.397       .  A
S904        H920   1.404       .  S
S906        H917   1.406       .  S
C908        C909   1.399       .  A
C908        S913   1.806       .  S
C909        C910   1.407       .  A
C909        H914   1.082       .  S
C910        C911   1.420       .  A
C911        C912   1.401       .  A
C911        S915   1.805   1_455  S
C912        H916   1.083       .  S
S913        H918   1.407       .  S
S915        H919   1.406   1_655  S
C921        C922   1.401       .  A
C921        C926   1.401       .  A
C921        H931   1.083       .  S
C922        C927   1.480       .  S
C922        C923   1.411       .  A
C923        C924   1.400       .  A
C923        S928   1.798       .  S
C924        C925   1.402       .  A
C924        H929   1.084       .  S
C925        C926   1.414       .  A
C926        S930   1.809       .  S
C927        C932   1.411       .  A
C927        C936   1.401       .  A
S928        H944   1.406       .  S
S930        H941   1.406       .  S
C932        C933   1.404       .  A
C932        S937   1.805       .  S
C933        C934   1.402       .  A
C933        H938   1.083       .  S
C934        C935   1.412       .  A
C935        C936   1.397       .  A
C935        S939   1.803       .  S
C936        H940   1.084       .  S
S937        H942   1.407       .  S
S939        H943   1.406       .  S
C945        C946   1.400       .  A
C945        C950   1.396       .  A
C945        H955   1.084       .  S
C946        C951   1.478       .  S
C946        C947   1.413       .  A
C947        C948   1.401       .  A
C947        S952   1.802       .  S
C948        C949   1.402       .  A
C948        H953   1.084       .  S
C949        C950   1.411       .  A
C950        S954   1.804       .  S
C951        C956   1.409       .  A
C951        C960   1.402       .  A
S952        H968   1.406       .  S
S954        H965   1.407       .  S
C956        C957   1.400       .  A
C956        S961   1.807       .  S
C957        C958   1.405       .  A
C957        H962   1.082       .  S
C958        C959   1.415       .  A
C959        C960   1.397       .  A
C959        S963   1.803       .  S
C960        H964   1.084       .  S
S961        H966   1.407       .  S
S963        H967   1.407       .  S
C969        C970   1.404   1_655  A
C969        C974   1.408       .  A
C969        H979   1.082   1_655  S
C970        C975   1.473       .  S
C970        C971   1.409   1_455  A
C971        C972   1.388       .  A
C971        S976   1.807   1_655  S
C972        C973   1.402       .  A
C972        H977   1.081       .  S
C973        C974   1.410       .  A
C974        S978   1.805       .  S
C975        C980   1.406       .  A
C975        C984   1.398       .  A
S976        H992   1.405       .  S
S978        H989   1.407       .  S
C980        C981   1.400       .  A
C980        S985   1.806       .  S
C981        C982   1.407       .  A
C981        H986   1.083       .  S
C982        C983   1.418       .  A
C983        C984   1.400       .  A
C983        S987   1.803       .  S
C984        H988   1.084       .  S
S985        H990   1.406       .  S
S987        H991   1.407       .  S
C993        C994   1.393       .  A
C993        C998   1.396       .  A
C993       H1003   1.083       .  S
C994        C999   1.486       .  S
C994        C995   1.411       .  A
C995        C996   1.410       .  A
C995       S1000   1.802       .  S
C996        C997   1.414       .  A
C996       H1001   1.079       .  S
C997        C998   1.431       .  A
C998       S1002   1.813       .  S
C999       C1004   1.405       .  A
C999       C1008   1.400       .  A
S1000      H1016   1.405       .  S
S1002      H1013   1.406       .  S
C1004      C1005   1.403       .  A
C1004      S1009   1.808       .  S
C1005      C1006   1.414       .  A
C1005      H1010   1.074       .  S
C1006      C1007   1.427       .  A
C1007      C1008   1.409       .  A
C1007      S1011   1.810       .  S
C1008      H1012   1.083       .  S
S1009      H1014   1.407       .  S
S1011      H1015   1.406       .  S
C1017      C1018   1.403       .  A
C1017      C1022   1.412       .  A
C1017      H1027   1.083       .  S
C1018      C1023   1.491       .  S
C1018      C1019   1.409       .  A
C1019      C1020   1.401       .  A
C1019      S1024   1.804       .  S
C1020      C1021   1.412       .  A
C1020      H1025   1.079       .  S
C1021      C1022   1.424       .  A
C1022      S1026   1.808       .  S
C1023      C1028   1.409       .  A
C1023      C1032   1.394       .  A
S1024      H1040   1.406       .  S
S1026      H1037   1.407       .  S
C1028      C1029   1.416       .  A
C1028      S1033   1.803       .  S
C1029      C1030   1.415       .  A
C1029      H1034   1.078       .  S
C1030      C1031   1.430       .  A
C1031      C1032   1.397       .  A
C1031      S1035   1.813       .  S
C1032      H1036   1.084       .  S
S1033      H1038   1.407       .  S
S1035      H1039   1.407       .  S
C1041      C1042   1.400       .  A
C1041      C1046   1.397       .  A
C1041      H1051   1.083       .  S
C1042      C1047   1.476       .  S
C1042      C1043   1.411       .  A
C1043      C1044   1.402       .  A
C1043      S1048   1.803       .  S
C1044      C1045   1.404       .  A
C1044      H1049   1.084       .  S
C1045      C1046   1.412       .  A
C1046      S1050   1.806       .  S
C1047      C1052   1.404       .  A
C1047      C1056   1.399       .  A
S1048      H1064   1.406       .  S
S1050      H1061   1.406       .  S
C1052      C1053   1.400   1_455  A
C1052      S1057   1.807       .  S
C1053      C1054   1.409       .  A
C1053      H1058   1.078       .  S
C1054      C1055   1.421       .  A
C1055      C1056   1.399   1_655  A
C1055      S1059   1.804       .  S
C1056      H1060   1.084       .  S
S1057      H1062   1.407   1_455  S
S1059      H1063   1.407       .  S
C1065      C1066   1.403       .  A
C1065      C1070   1.405       .  A
C1065      H1075   1.084       .  S
C1066      C1071   1.486       .  S
C1066      C1067   1.410       .  A
C1067      C1068   1.398       .  A
C1067      S1072   1.803       .  S
C1068      C1069   1.411       .  A
C1068      H1073   1.083       .  S
C1069      C1070   1.421       .  A
C1070      S1074   1.802       .  S
C1071      C1076   1.408       .  A
C1071      C1080   1.394       .  A
S1072      H1088   1.406       .  S
S1074      H1085   1.407       .  S
C1076      C1077   1.413       .  A
C1076      S1081   1.804       .  S
C1077      C1078   1.414       .  A
C1077      H1082   1.077       .  S
C1078      C1079   1.430       .  A
C1079      C1080   1.396       .  A
C1079      S1083   1.815       .  S
C1080      H1084   1.083       .  S
S1081      H1086   1.406       .  S
S1083      H1087   1.407       .  S
C1089      C1090   1.401       .  A
C1089      C1094   1.401       .  A
C1089      H1099   1.084       .  S
C1090      C1095   1.477       .  S
C1090      C1091   1.414       .  A
C1091      C1092   1.397       .  A
C1091      S1096   1.806       .  S
C1092      C1093   1.401       .  A
C1092      H1097   1.084       .  S
C1093      C1094   1.414       .  A
C1094      S1098   1.801       .  S
C1095      C1100   1.405       .  A
C1095      C1104   1.398       .  A
S1096      H1112   1.405       .  S
S1098      H1109   1.406       .  S
C1100      C1101   1.402       .  A
C1100      S1105   1.805       .  S
C1101      C1102   1.409       .  A
C1101      H1106   1.083       .  S
C1102      C1103   1.419       .  A
C1103      C1104   1.402       .  A
C1103      S1107   1.802       .  S
C1104      H1108   1.083       .  S
S1105      H1110   1.407       .  S
S1107      H1111   1.407       .  S
C1113      C1114   1.403       .  A
C1113      C1118   1.408       .  A
C1113      H1123   1.084       .  S
C1114      C1119   1.492       .  S
C1114      C1115   1.411       .  A
C1115      C1116   1.402       .  A
C1115      S1120   1.805       .  S
C1116      C1117   1.414       .  A
C1116      H1121   1.079       .  S
C1117      C1118   1.427       .  A
C1118      S1122   1.805       .  S
C1119      C1124   1.410       .  A
C1119      C1128   1.393       .  A
S1120      H1136   1.401       .  S
S1122      H1133   1.400       .  S
C1124      C1125   1.416       .  A
C1124      S1129   1.804       .  S
C1125      C1126   1.416       .  A
C1125      H1130   1.077       .  S
C1126      C1127   1.430       .  A
C1127      C1128   1.399       .  A
C1127      S1131   1.810       .  S
C1128      H1132   1.084       .  S
S1129      H1134   1.407       .  S
S1131      H1135   1.406       .  S
C1137      C1138   1.403       .  A
C1137      C1142   1.392       .  A
C1137      H1147   1.084       .  S
C1138      C1143   1.483       .  S
C1138      C1139   1.414       .  A
C1139      C1140   1.402       .  A
C1139      S1144   1.805       .  S
C1140      C1141   1.405       .  A
C1140      H1145   1.084       .  S
C1141      C1142   1.415       .  A
C1142      S1146   1.805       .  S
C1143      C1148   1.414       .  A
C1143      C1152   1.402       .  A
S1144      H1160   1.405       .  S
S1146      H1157   1.406       .  S
C1148      C1149   1.405       .  A
C1148      S1153   1.807       .  S
C1149      C1150   1.402       .  A
C1149      H1154   1.083       .  S
C1150      C1151   1.411       .  A
C1151      C1152   1.393       .  A
C1151      S1155   1.801       .  S
C1152      H1156   1.084       .  S
S1153      H1158   1.406       .  S
S1155      H1159   1.404       .  S
C1161      C1162   1.402       .  A
C1161      C1166   1.398       .  A
C1161      H1171   1.084       .  S
C1162      C1167   1.479       .  S
C1162      C1163   1.412       .  A
C1163      C1164   1.400       .  A
C1163      S1168   1.804       .  S
C1164      C1165   1.405   1_455  A
C1164      H1169   1.084   1_455  S
C1165      C1166   1.411   1_655  A
C1166      S1170   1.803       .  S
C1167      C1172   1.407       .  A
C1167      C1176   1.402       .  A
S1168      H1184   1.405       .  S
S1170      H1181   1.407   1_455  S
C1172      C1173   1.400       .  A
C1172      S1177   1.807       .  S
C1173      C1174   1.407       .  A
C1173      H1178   1.083       .  S
C1174      C1175   1.411       .  A
C1175      C1176   1.404       .  A
C1175      S1179   1.806       .  S
C1176      H1180   1.081       .  S
S1177      H1182   1.407       .  S
S1179      H1183   1.407       .  S
C1185      C1186   1.401       .  A
C1185      C1190   1.397       .  A
C1185      H1195   1.084       .  S
C1186      C1191   1.473       .  S
C1186      C1187   1.409       .  A
C1187      C1188   1.400       .  A
C1187      S1192   1.806       .  S
C1188      C1189   1.402       .  A
C1188      H1193   1.083       .  S
C1189      C1190   1.412       .  A
C1190      S1194   1.804       .  S
C1191      C1196   1.406       .  A
C1191      C1200   1.399       .  A
S1192      H1208   1.406       .  S
S1194      H1205   1.407       .  S
C1196      C1197   1.398       .  A
C1196      S1201   1.810       .  S
C1197      C1198   1.408       .  A
C1197      H1202   1.081       .  S
C1198      C1199   1.420       .  A
C1199      C1200   1.400       .  A
C1199      S1203   1.800       .  S
C1200      H1204   1.082       .  S
S1201      H1206   1.406       .  S
S1203      H1207   1.408       .  S
C1209      C1210   1.403   1_556  A
C1209      C1214   1.405       .  A
C1209      H1219   1.084   1_556  S
C1210      C1215   1.487       .  S
C1210      C1211   1.413   1_554  A
C1211      C1212   1.401       .  A
C1211      S1216   1.804   1_556  S
C1212      C1213   1.405       .  A
C1212      H1217   1.084       .  S
C1213      C1214   1.417       .  A
C1214      S1218   1.802       .  S
C1215      C1220   1.406       .  A
C1215      C1224   1.404       .  A
S1216      H1232   1.404       .  S
S1218      H1229   1.407       .  S
C1220      C1221   1.400       .  A
C1220      S1225   1.809       .  S
C1221      C1222   1.410       .  A
C1221      H1226   1.081       .  S
C1222      C1223   1.420       .  A
C1223      C1224   1.409       .  A
C1223      S1227   1.799       .  S
C1224      H1228   1.083       .  S
S1225      H1230   1.407       .  S
S1227      H1231   1.407       .  S
C1233      C1234   1.403   1_556  A
C1233      C1238   1.407       .  A
C1233      H1243   1.083   1_556  S
C1234      C1239   1.481       .  S
C1234      C1235   1.412       .  A
C1235      C1236   1.396   1_554  A
C1235      S1240   1.806       .  S
C1236      C1237   1.405       .  A
C1236      H1241   1.083       .  S
C1237      C1238   1.415       .  A
C1238      S1242   1.807       .  S
C1239      C1244   1.409       .  A
C1239      C1248   1.401       .  A
S1240      H1256   1.405       .  S
S1242      H1253   1.407       .  S
C1244      C1245   1.406       .  A
C1244      S1249   1.804       .  S
C1245      C1246   1.405       .  A
C1245      H1250   1.083       .  S
C1246      C1247   1.414       .  A
C1247      C1248   1.401       .  A
C1247      S1251   1.808       .  S
C1248      H1252   1.083       .  S
S1249      H1254   1.407       .  S
S1251      H1255   1.407       .  S
C1257      C1258   1.401       .  A
C1257      C1262   1.396       .  A
C1257      H1267   1.084       .  S
C1258      C1263   1.473       .  S
C1258      C1259   1.411       .  A
C1259      C1260   1.397       .  A
C1259      S1264   1.804       .  S
C1260      C1261   1.403       .  A
C1260      H1265   1.083       .  S
C1261      C1262   1.412       .  A
C1262      S1266   1.804       .  S
C1263      C1268   1.408       .  A
C1263      C1272   1.400       .  A
S1264      H1280   1.406       .  S
S1266      H1277   1.406       .  S
C1268      C1269   1.395       .  A
C1268      S1273   1.810       .  S
C1269      C1270   1.405       .  A
C1269      H1274   1.082       .  S
C1270      C1271   1.416       .  A
C1271      C1272   1.400       .  A
C1271      S1275   1.799       .  S
C1272      H1276   1.084       .  S
S1273      H1278   1.406       .  S
S1275      H1279   1.407       .  S
C1281      C1282   1.401       .  A
C1281      C1286   1.394   1_455  A
C1281      H1291   1.084       .  S
C1282      C1287   1.470       .  S
C1282      C1283   1.410       .  A
C1283      C1284   1.395   1_455  A
C1283      S1288   1.804       .  S
C1284      C1285   1.403       .  A
C1284      H1289   1.084       .  S
C1285      C1286   1.412       .  A
C1286      S1290   1.804       .  S
C1287      C1292   1.407       .  A
C1287      C1296   1.400       .  A
S1288      H1304   1.407       .  S
S1290      H1301   1.407       .  S
C1292      C1293   1.401       .  A
C1292      S1297   1.805       .  S
C1293      C1294   1.403       .  A
C1293      H1298   1.083       .  S
C1294      C1295   1.412       .  A
C1295      C1296   1.390       .  A
C1295      S1299   1.806       .  S
C1296      H1300   1.084       .  S
S1297      H1302   1.407       .  S
S1299      H1303   1.401       .  S
C1305      C1306   1.404       .  A
C1305      C1310   1.406       .  A
C1305      H1315   1.083       .  S
C1306      C1311   1.487       .  S
C1306      C1307   1.412       .  A
C1307      C1308   1.397       .  A
C1307      S1312   1.804       .  S
C1308      C1309   1.407       .  A
C1308      H1313   1.084       .  S
C1309      C1310   1.416       .  A
C1310      S1314   1.804       .  S
C1311      C1316   1.413       .  A
C1311      C1320   1.406       .  A
S1312      H1328   1.406       .  S
S1314      H1325   1.407   1_655  S
C1316      C1317   1.402       .  A
C1316      S1321   1.808       .  S
C1317      C1318   1.402       .  A
C1317      H1322   1.083       .  S
C1318      C1319   1.407       .  A
C1319      C1320   1.405       .  A
C1319      S1323   1.802       .  S
C1320      H1324   1.083       .  S
S1321      H1326   1.407       .  S
S1323      H1327   1.406       .  S
C1329      C1330   1.403       .  A
C1329      C1334   1.403       .  A
C1329      H1339   1.083       .  S
C1330      C1335   1.474       .  S
C1330      C1331   1.411       .  A
C1331      C1332   1.391       .  A
C1331      S1336   1.807       .  S
C1332      C1333   1.403   1_455  A
C1332      H1337   1.082       .  S
C1333      C1334   1.413   1_655  A
C1334      S1338   1.802   1_455  S
C1335      C1340   1.405       .  A
C1335      C1344   1.398       .  A
S1336      H1352   1.404       .  S
S1338      H1349   1.406       .  S
C1340      C1341   1.401       .  A
C1340      S1345   1.805       .  S
C1341      C1342   1.408       .  A
C1341      H1346   1.084       .  S
C1342      C1343   1.418       .  A
C1343      C1344   1.401       .  A
C1343      S1347   1.804       .  S
C1344      H1348   1.084       .  S
S1345      H1350   1.407       .  S
S1347      H1351   1.406       .  S
C1353      C1354   1.399       .  A
C1353      C1358   1.394       .  A
C1353      H1363   1.085       .  S
C1354      C1359   1.476       .  S
C1354      C1355   1.411       .  A
C1355      C1356   1.403       .  A
C1355      S1360   1.803       .  S
C1356      C1357   1.404       .  A
C1356      H1361   1.084       .  S
C1357      C1358   1.417       .  A
C1358      S1362   1.806       .  S
C1359      C1364   1.407       .  A
C1359      C1368   1.402       .  A
S1360      H1376   1.405       .  S
S1362      H1373   1.405       .  S
C1364      C1365   1.400       .  A
C1364      S1369   1.807       .  S
C1365      C1366   1.405       .  A
C1365      H1370   1.082       .  S
C1366      C1367   1.412       .  A
C1367      C1368   1.399       .  A
C1367      S1371   1.802       .  S
C1368      H1372   1.084       .  S
S1369      H1374   1.407       .  S
S1371      H1375   1.407       .  S
C1377      C1378   1.395       .  A
C1377      C1382   1.396       .  A
C1377      H1387   1.084       .  S
C1378      C1383   1.481       .  S
C1378      C1379   1.409       .  A
C1379      C1380   1.407       .  A
C1379      S1384   1.804       .  S
C1380      C1381   1.414       .  A
C1380      H1385   1.078       .  S
C1381      C1382   1.427       .  A
C1382      S1386   1.814       .  S
C1383      C1388   1.406       .  A
C1383      C1392   1.400       .  A
S1384      H1400   1.405       .  S
S1386      H1397   1.407       .  S
C1388      C1389   1.401       .  A
C1388      S1393   1.806       .  S
C1389      C1390   1.410       .  A
C1389      H1394   1.082       .  S
C1390      C1391   1.424       .  A
C1391      C1392   1.403       .  A
C1391      S1395   1.805       .  S
C1392      H1396   1.084       .  S
S1393      H1398   1.407       .  S
S1395      H1399   1.404       .  S
C1401      C1402   1.403       .  A
C1401      C1406   1.410       .  A
C1401      H1411   1.082       .  S
C1402      C1407   1.487       .  S
C1402      C1403   1.407       .  A
C1403      C1404   1.395       .  A
C1403      S1408   1.808       .  S
C1404      C1405   1.415       .  A
C1404      H1409   1.069       .  S
C1405      C1406   1.425       .  A
C1406      S1410   1.809       .  S
C1407      C1412   1.408       .  A
C1407      C1416   1.402       .  A
S1408      H1424   1.407       .  S
S1410      H1421   1.407       .  S
C1412      C1413   1.402       .  A
C1412      S1417   1.809       .  S
C1413      C1414   1.413       .  A
C1413      H1418   1.078       .  S
C1414      C1415   1.426       .  A
C1415      C1416   1.403       .  A
C1415      S1419   1.806       .  S
C1416      H1420   1.084       .  S
S1417      H1422   1.406       .  S
S1419      H1423   1.399       .  S
C1425      C1426   1.401       .  A
C1425      C1430   1.397       .  A
C1425      H1435   1.084       .  S
C1426      C1431   1.475       .  S
C1426      C1427   1.408       .  A
C1427      C1428   1.398   1_455  A
C1427      S1432   1.803       .  S
C1428      C1429   1.406       .  A
C1428      H1433   1.078       .  S
C1429      C1430   1.417   1_655  A
C1430      S1434   1.804   1_455  S
C1431      C1436   1.406       .  A
C1431      C1440   1.401       .  A
S1432      H1448   1.406       .  S
S1434      H1445   1.407       .  S
C1436      C1437   1.400       .  A
C1436      S1441   1.797       .  S
C1437      C1438   1.401       .  A
C1437      H1442   1.084       .  S
C1438      C1439   1.413       .  A
C1439      C1440   1.396       .  A
C1439      S1443   1.806       .  S
C1440      H1444   1.084       .  S
S1441      H1446   1.406       .  S
S1443      H1447   1.403       .  S
C1449      C1450   1.402       .  A
C1449      C1454   1.408       .  A
C1449      H1459   1.084       .  S
C1450      C1455   1.483       .  S
C1450      C1451   1.404       .  A
C1451      C1452   1.392       .  A
C1451      S1456   1.807       .  S
C1452      C1453   1.417       .  A
C1452      H1457   1.079       .  S
C1453      C1454   1.428       .  A
C1454      S1458   1.798       .  S
C1455      C1460   1.406       .  A
C1455      C1464   1.401       .  A
S1456      H1472   1.406       .  S
S1458      H1469   1.406       .  S
C1460      C1461   1.401       .  A
C1460      S1465   1.810       .  S
C1461      C1462   1.414       .  A
C1461      H1466   1.072       .  S
C1462      C1463   1.422       .  A
C1463      C1464   1.407       .  A
C1463      S1467   1.807       .  S
C1464      H1468   1.082       .  S
S1465      H1470   1.406       .  S
S1467      H1471   1.407       .  S
C1473      C1474   1.401       .  A
C1473      C1478   1.397       .  A
C1473      H1483   1.084       .  S
C1474      C1479   1.470       .  S
C1474      C1475   1.410       .  A
C1475      C1476   1.395       .  A
C1475      S1480   1.804       .  S
C1476      C1477   1.403       .  A
C1476      H1481   1.084       .  S
C1477      C1478   1.412       .  A
C1478      S1482   1.803       .  S
C1479      C1484   1.407       .  A
C1479      C1488   1.397       .  A
S1480      H1496   1.406       .  S
S1482      H1493   1.407       .  S
C1484      C1485   1.404       .  A
C1484      S1489   1.804       .  S
C1485      C1486   1.402       .  A
C1485      H1490   1.083       .  S
C1486      C1487   1.416       .  A
C1487      C1488   1.394       .  A
C1487      S1491   1.811       .  S
C1488      H1492   1.083       .  S
S1489      H1494   1.407       .  S
S1491      H1495   1.406       .  S
C1497      C1498   1.395       .  A
C1497      C1502   1.398       .  A
C1497      H1507   1.083       .  S
C1498      C1503   1.483       .  S
C1498      C1499   1.409       .  A
C1499      C1500   1.407       .  A
C1499      S1504   1.803       .  S
C1500      C1501   1.414       .  A
C1500      H1505   1.077       .  S
C1501      C1502   1.429       .  A
C1502      S1506   1.816       .  S
C1503      C1508   1.406       .  A
C1503      C1512   1.401       .  A
S1504      H1520   1.406       .  S
S1506      H1517   1.406       .  S
C1508      C1509   1.402       .  A
C1508      S1513   1.808       .  S
C1509      C1510   1.412       .  A
C1509      H1514   1.075       .  S
C1510      C1511   1.423       .  A
C1511      C1512   1.407       .  A
C1511      S1515   1.810       .  S
C1512      H1516   1.082       .  S
S1513      H1518   1.406       .  S
S1515      H1519   1.406       .  S
C1521      C1522   1.401       .  A
C1521      C1526   1.399       .  A
C1521      H1531   1.084       .  S
C1522      C1527   1.474       .  S
C1522      C1523   1.413       .  A
C1523      C1524   1.393       .  A
C1523      S1528   1.805       .  S
C1524      C1525   1.401       .  A
C1524      H1529   1.084       .  S
C1525      C1526   1.413       .  A
C1526      S1530   1.800       .  S
C1527      C1532   1.409       .  A
C1527      C1536   1.402       .  A
S1528      H1544   1.406       .  S
S1530      H1541   1.406       .  S
C1532      C1533   1.397       .  A
C1532      S1537   1.808       .  S
C1533      C1534   1.400       .  A
C1533      H1538   1.078       .  S
C1534      C1535   1.411       .  A
C1535      C1536   1.398       .  A
C1535      S1539   1.803       .  S
C1536      H1540   1.084       .  S
S1537      H1542   1.407       .  S
S1539      H1543   1.407       .  S
C1545      C1546   1.401       .  A
C1545      C1550   1.407       .  A
C1545      H1555   1.083       .  S
C1546      C1551   1.491       .  S
C1546      C1547   1.411       .  A
C1547      C1548   1.399       .  A
C1547      S1552   1.804       .  S
C1548      C1549   1.410       .  A
C1548      H1553   1.083       .  S
C1549      C1550   1.424       .  A
C1550      S1554   1.804       .  S
C1551      C1556   1.415       .  A
C1551      C1560   1.403       .  A
S1552      H1568   1.406       .  S
S1554      H1565   1.406       .  S
C1556      C1557   1.407       .  A
C1556      S1561   1.807       .  S
C1557      C1558   1.402   1_455  A
C1557      H1562   1.083   1_455  S
C1558      C1559   1.408       .  A
C1559      C1560   1.403   1_655  A
C1559      S1563   1.804       .  S
C1560      H1564   1.082       .  S
S1561      H1566   1.407       .  S
S1563      H1567   1.406       .  S
C1569      C1570   1.401       .  A
C1569      C1574   1.397       .  A
C1569      H1579   1.084       .  S
C1570      C1575   1.481       .  S
C1570      C1571   1.413       .  A
C1571      C1572   1.401       .  A
C1571      S1576   1.804       .  S
C1572      C1573   1.406       .  A
C1572      H1577   1.084       .  S
C1573      C1574   1.415       .  A
C1574      S1578   1.803       .  S
C1575      C1580   1.410       .  A
C1575      C1584   1.403       .  A
S1576      H1592   1.406       .  S
S1578      H1589   1.408       .  S
C1580      C1581   1.399       .  A
C1580      S1585   1.803       .  S
C1581      C1582   1.402   1_455  A
C1581      H1586   1.084       .  S
C1582      C1583   1.414   1_655  A
C1583      C1584   1.402       .  A
C1583      S1587   1.802   1_455  S
C1584      H1588   1.084       .  S
S1585      H1590   1.403       .  S
S1587      H1591   1.407       .  S
C1593      C1594   1.402       .  A
C1593      C1598   1.400       .  A
C1593      H1603   1.084       .  S
C1594      C1599   1.488       .  S
C1594      C1595   1.413       .  A
C1595      C1596   1.405       .  A
C1595      S1600   1.803       .  S
C1596      C1597   1.407       .  A
C1596      H1601   1.084       .  S
C1597      C1598   1.418       .  A
C1598      S1602   1.803       .  S
C1599      C1604   1.412       .  A
C1599      C1608   1.401       .  A
S1600      H1616   1.406       .  S
S1602      H1613   1.407       .  S
C1604      C1605   1.409       .  A
C1604      S1609   1.805       .  S
C1605      C1606   1.407       .  A
C1605      H1610   1.083       .  S
C1606      C1607   1.416       .  A
C1607      C1608   1.399       .  A
C1607      S1611   1.804       .  S
C1608      H1612   1.084       .  S
S1609      H1614   1.407       .  S
S1611      H1615   1.407       .  S
C1617      C1618   1.403       .  A
C1617      C1622   1.397       .  A
C1617      H1627   1.084       .  S
C1618      C1623   1.489       .  S
C1618      C1619   1.416       .  A
C1619      C1620   1.406       .  A
C1619      S1624   1.803       .  S
C1620      C1621   1.404       .  A
C1620      H1625   1.084       .  S
C1621      C1622   1.412       .  A
C1622      S1626   1.805       .  S
C1623      C1628   1.413       .  A
C1623      C1632   1.402       .  A
S1624      H1640   1.406       .  S
S1626      H1637   1.407       .  S
C1628      C1629   1.408       .  A
C1628      S1633   1.806       .  S
C1629      C1630   1.404       .  A
C1629      H1634   1.082       .  S
C1630      C1631   1.415       .  A
C1631      C1632   1.398       .  A
C1631      S1635   1.805       .  S
C1632      H1636   1.084       .  S
S1633      H1638   1.407       .  S
S1635      H1639   1.407       .  S
C1641      C1642   1.405       .  A
C1641      C1646   1.404       .  A
C1641      H1651   1.084       .  S
C1642      C1647   1.483       .  S
C1642      C1643   1.413       .  A
C1643      C1644   1.393       .  A
C1643      S1648   1.806       .  S
C1644      C1645   1.404       .  A
C1644      H1649   1.084       .  S
C1645      C1646   1.415       .  A
C1646      S1650   1.798       .  S
C1647      C1652   1.413       .  A
C1647      C1656   1.403       .  A
S1648      H1664   1.407       .  S
S1650      H1661   1.407       .  S
C1652      C1653   1.403       .  A
C1652      S1657   1.807       .  S
C1653      C1654   1.403   1_455  A
C1653      H1658   1.083   1_455  S
C1654      C1655   1.411   1_655  A
C1655      C1656   1.397       .  A
C1655      S1659   1.803   1_455  S
C1656      H1660   1.084       .  S
S1657      H1662   1.406       .  S
S1659      H1663   1.407       .  S
C1665      C1666   1.402       .  A
C1665      C1670   1.399       .  A
C1665      H1675   1.083       .  S
C1666      C1671   1.480       .  S
C1666      C1667   1.409       .  A
C1667      C1668   1.399       .  A
C1667      S1672   1.803       .  S
C1668      C1669   1.406       .  A
C1668      H1673   1.084       .  S
C1669      C1670   1.416       .  A
C1670      S1674   1.810       .  S
C1671      C1676   1.409       .  A
C1671      C1680   1.404       .  A
S1672      H1688   1.406       .  S
S1674      H1685   1.407       .  S
C1676      C1677   1.399       .  A
C1676      S1681   1.806       .  S
C1677      C1678   1.402       .  A
C1677      H1682   1.084       .  S
C1678      C1679   1.410       .  A
C1679      C1680   1.399       .  A
C1679      S1683   1.800       .  S
C1680      H1684   1.084       .  S
S1681      H1686   1.407       .  S
S1683      H1687   1.406       .  S
C1689      C1690   1.402       .  A
C1689      C1694   1.403       .  A
C1689      H1699   1.084       .  S
C1690      C1695   1.492   1_556  S
C1690      C1691   1.413       .  A
C1691      C1692   1.403       .  A
C1691      S1696   1.803       .  S
C1692      C1693   1.406       .  A
C1692      H1697   1.084       .  S
C1693      C1694   1.421       .  A
C1694      S1698   1.801       .  S
C1695      C1700   1.412       .  A
C1695      C1704   1.401       .  A
S1696      H1712   1.407   1_556  S
S1698      H1709   1.407       .  S
C1700      C1701   1.413       .  A
C1700      S1705   1.805       .  S
C1701      C1702   1.408       .  A
C1701      H1706   1.082       .  S
C1702      C1703   1.418       .  A
C1703      C1704   1.398       .  A
C1703      S1707   1.804       .  S
C1704      H1708   1.084       .  S
S1705      H1710   1.407       .  S
S1707      H1711   1.407       .  S
C1713      C1714   1.403       .  A
C1713      C1718   1.405       .  A
C1713      H1723   1.084       .  S
C1714      C1719   1.487       .  S
C1714      C1715   1.413       .  A
C1715      C1716   1.401       .  A
C1715      S1720   1.804       .  S
C1716      C1717   1.406       .  A
C1716      H1721   1.084       .  S
C1717      C1718   1.418       .  A
C1718      S1722   1.801       .  S
C1719      C1724   1.408       .  A
C1719      C1728   1.403   1_554  A
S1720      H1736   1.404       .  S
S1722      H1733   1.408       .  S
C1724      C1725   1.402   1_554  A
C1724      S1729   1.808       .  S
C1725      C1726   1.409       .  A
C1725      H1730   1.082       .  S
C1726      C1727   1.420       .  A
C1727      C1728   1.407       .  A
C1727      S1731   1.799       .  S
C1728      H1732   1.084   1_556  S
S1729      H1734   1.406       .  S
S1731      H1735   1.406       .  S
C1737      C1738   1.400       .  A
C1737      C1742   1.396       .  A
C1737      H1747   1.084       .  S
C1738      C1743   1.473       .  S
C1738      C1739   1.411       .  A
C1739      C1740   1.399       .  A
C1739      S1744   1.803       .  S
C1740      C1741   1.404       .  A
C1740      H1745   1.084       .  S
C1741      C1742   1.412       .  A
C1742      S1746   1.803       .  S
C1743      C1748   1.407       .  A
C1743      C1752   1.401       .  A
S1744      H1760   1.405       .  S
S1746      H1757   1.408       .  S
C1748      C1749   1.394       .  A
C1748      S1753   1.810       .  S
C1749      C1750   1.405       .  A
C1749      H1754   1.082       .  S
C1750      C1751   1.419       .  A
C1751      C1752   1.403       .  A
C1751      S1755   1.801       .  S
C1752      H1756   1.084       .  S
S1753      H1758   1.407       .  S
S1755      H1759   1.407       .  S
C1761      C1762   1.402       .  A
C1761      C1766   1.400       .  A
C1761      H1771   1.084       .  S
C1762      C1767   1.470       .  S
C1762      C1763   1.408       .  A
C1763      C1764   1.392       .  A
C1763      S1768   1.805       .  S
C1764      C1765   1.404       .  A
C1764      H1769   1.084       .  S
C1765      C1766   1.415       .  A
C1766      S1770   1.802       .  S
C1767      C1772   1.406       .  A
C1767      C1776   1.398       .  A
S1768      H1784   1.405       .  S
S1770      H1781   1.407       .  S
C1772      C1773   1.404       .  A
C1772      S1777   1.805       .  S
C1773      C1774   1.406       .  A
C1773      H1778   1.083       .  S
C1774      C1775   1.413       .  A
C1775      C1776   1.392       .  A
C1775      S1779   1.804       .  S
C1776      H1780   1.084       .  S
S1777      H1782   1.407       .  S
S1779      H1783   1.406       .  S
C1785      C1786   1.403       .  A
C1785      C1790   1.400       .  A
C1785      H1795   1.084       .  S
C1786      C1791   1.485       .  S
C1786      C1787   1.415       .  A
C1787      C1788   1.400       .  A
C1787      S1792   1.805       .  S
C1788      C1789   1.403       .  A
C1788      H1793   1.084       .  S
C1789      C1790   1.415       .  A
C1790      S1794   1.803       .  S
C1791      C1796   1.410       .  A
C1791      C1800   1.402       .  A
S1792      H1808   1.406       .  S
S1794      H1805   1.407       .  S
C1796      C1797   1.403       .  A
C1796      S1801   1.807       .  S
C1797      C1798   1.407       .  A
C1797      H1802   1.082       .  S
C1798      C1799   1.418       .  A
C1799      C1800   1.399       .  A
C1799      S1803   1.802       .  S
C1800      H1804   1.084       .  S
S1801      H1806   1.407       .  S
S1803      H1807   1.408       .  S
C1809      C1810   1.400       .  A
C1809      C1814   1.395       .  A
C1809      H1819   1.084       .  S
C1810      C1815   1.474       .  S
C1810      C1811   1.413       .  A
C1811      C1812   1.400       .  A
C1811      S1816   1.804       .  S
C1812      C1813   1.402       .  A
C1812      H1817   1.084       .  S
C1813      C1814   1.410       .  A
C1814      S1818   1.805       .  S
C1815      C1820   1.407       .  A
C1815      C1824   1.398       .  A
S1816      H1832   1.405       .  S
S1818      H1829   1.407       .  S
C1820      C1821   1.400       .  A
C1820      S1825   1.809       .  S
C1821      C1822   1.409       .  A
C1821      H1826   1.082       .  S
C1822      C1823   1.421       .  A
C1823      C1824   1.399       .  A
C1823      S1827   1.800       .  S
C1824      H1828   1.084       .  S
S1825      H1830   1.407       .  S
S1827      H1831   1.408       .  S
C1833      C1834   1.403       .  A
C1833      C1838   1.402       .  A
C1833      H1843   1.084       .  S
C1834      C1839   1.474       .  S
C1834      C1835   1.409       .  A
C1835      C1836   1.390       .  A
C1835      S1840   1.806       .  S
C1836      C1837   1.404       .  A
C1836      H1841   1.084       .  S
C1837      C1838   1.417       .  A
C1838      S1842   1.801       .  S
C1839      C1844   1.408       .  A
C1839      C1848   1.401       .  A
S1840      H1856   1.406       .  S
S1842      H1853   1.407       .  S
C1844      C1845   1.402       .  A
C1844      S1849   1.805       .  S
C1845      C1846   1.404       .  A
C1845      H1850   1.083       .  S
C1846      C1847   1.412       .  A
C1847      C1848   1.394       .  A
C1847      S1851   1.804       .  S
C1848      H1852   1.084       .  S
S1849      H1854   1.407       .  S
S1851      H1855   1.407       .  S
C1857      C1858   1.402       .  A
C1857      C1862   1.402       .  A
C1857      H1867   1.084       .  S
C1858      C1863   1.488       .  S
C1858      C1859   1.413       .  A
C1859      C1860   1.404       .  A
C1859      S1864   1.804       .  S
C1860      C1861   1.409       .  A
C1860      H1865   1.083       .  S
C1861      C1862   1.420       .  A
C1862      S1866   1.802       .  S
C1863      C1868   1.409       .  A
C1863      C1872   1.405       .  A
S1864      H1880   1.405       .  S
S1866      H1877   1.407       .  S
C1868      C1869   1.401       .  A
C1868      S1873   1.808       .  S
C1869      C1870   1.408       .  A
C1869      H1874   1.083       .  S
C1870      C1871   1.417       .  A
C1871      C1872   1.407       .  A
C1871      S1875   1.800       .  S
C1872      H1876   1.084       .  S
S1873      H1878   1.407       .  S
S1875      H1879   1.407       .  S
C1881      C1882   1.402       .  A
C1881      C1886   1.396       .  A
C1881      H1891   1.085       .  S
C1882      C1887   1.475       .  S
C1882      C1883   1.411       .  A
C1883      C1884   1.397       .  A
C1883      S1888   1.804       .  S
C1884      C1885   1.405       .  A
C1884      H1889   1.084       .  S
C1885      C1886   1.413       .  A
C1886      S1890   1.802       .  S
C1887      C1892   1.408       .  A
C1887      C1896   1.401       .  A
S1888      H1904   1.406       .  S
S1890      H1901   1.407       .  S
C1892      C1893   1.400       .  A
C1892      S1897   1.808       .  S
C1893      C1894   1.405       .  A
C1893      H1898   1.082       .  S
C1894      C1895   1.415       .  A
C1895      C1896   1.398       .  A
C1895      S1899   1.802       .  S
C1896      H1900   1.083       .  S
S1897      H1902   1.407       .  S
S1899      H1903   1.407       .  S
C1905      C1906   1.403       .  A
C1905      C1910   1.401       .  A
C1905      H1915   1.084       .  S
C1906      C1911   1.488   1_545  S
C1906      C1907   1.415   1_545  A
C1907      C1908   1.404       .  A
C1907      S1912   1.803       .  S
C1908      C1909   1.403   1_565  A
C1908      H1913   1.084       .  S
C1909      C1910   1.414       .  A
C1910      S1914   1.805       .  S
C1911      C1916   1.410       .  A
C1911      C1920   1.405   1_565  A
S1912      H1928   1.406       .  S
S1914      H1925   1.407       .  S
C1916      C1917   1.402       .  A
C1916      S1921   1.808       .  S
C1917      C1918   1.406       .  A
C1917      H1922   1.083       .  S
C1918      C1919   1.416   1_565  A
C1919      C1920   1.407       .  A
C1919      S1923   1.801       .  S
C1920      H1924   1.084       .  S
S1921      H1926   1.407       .  S
S1923      H1927   1.407       .  S
C1929      C1930   1.402       .  A
C1929      C1934   1.406       .  A
C1929      H1939   1.082       .  S
C1930      C1935   1.482       .  S
C1930      C1931   1.409       .  A
C1931      C1932   1.396       .  A
C1931      S1936   1.804       .  S
C1932      C1933   1.406       .  A
C1932      H1937   1.082       .  S
C1933      C1934   1.420       .  A
C1934      S1938   1.809       .  S
C1935      C1940   1.408       .  A
C1935      C1944   1.399       .  A
S1936      H1952   1.407       .  S
S1938      H1949   1.407       .  S
C1940      C1941   1.409       .  A
C1940      S1945   1.805       .  S
C1941      C1942   1.410       .  A
C1941      H1946   1.082       .  S
C1942      C1943   1.418       .  A
C1943      C1944   1.396       .  A
C1943      S1947   1.811       .  S
C1944      H1948   1.083       .  S
S1945      H1950   1.407       .  S
S1947      H1951   1.406       .  S
C1953      C1954   1.403       .  A
C1953      C1958   1.404       .  A
C1953      H1963   1.083       .  S
C1954      C1959   1.476       .  S
C1954      C1955   1.408       .  A
C1955      C1956   1.397       .  A
C1955      S1960   1.803       .  S
C1956      C1957   1.406       .  A
C1956      H1961   1.083       .  S
C1957      C1958   1.412       .  A
C1958      S1962   1.805       .  S
C1959      C1964   1.406       .  A
C1959      C1968   1.401       .  A
S1960      H1976   1.405       .  S
S1962      H1973   1.407       .  S
C1964      C1965   1.396       .  A
C1964      S1969   1.809       .  S
C1965      C1966   1.408       .  A
C1965      H1970   1.080       .  S
C1966      C1967   1.417       .  A
C1967      C1968   1.404       .  A
C1967      S1971   1.802       .  S
C1968      H1972   1.083       .  S
S1969      H1974   1.407       .  S
S1971      H1975   1.406       .  S
C1977      C1978   1.403       .  A
C1977      C1982   1.406       .  A
C1977      H1987   1.083       .  S
C1978      C1983   1.483       .  S
C1978      C1979   1.411       .  A
C1979      C1980   1.399       .  A
C1979      S1984   1.804       .  S
C1980      C1981   1.405       .  A
C1980      H1985   1.084       .  S
C1981      C1982   1.413       .  A
C1982      S1986   1.804       .  S
C1983      C1988   1.408       .  A
C1983      C1992   1.405       .  A
S1984      H2000   1.405       .  S
S1986      H1997   1.407       .  S
C1988      C1989   1.400       .  A
C1988      S1993   1.808       .  S
C1989      C1990   1.407       .  A
C1989      H1994   1.082       .  S
C1990      C1991   1.413       .  A
C1991      C1992   1.404       .  A
C1991      S1995   1.801       .  S
C1992      H1996   1.082       .  S
S1993      H1998   1.407       .  S
S1995      H1999   1.406       .  S
C2001      C2002   1.403       .  A
C2001      C2006   1.404       .  A
C2001      H2011   1.084       .  S
C2002      C2007   1.475       .  S
C2002      C2003   1.409       .  A
C2003      C2004   1.390       .  A
C2003      S2008   1.806       .  S
C2004      C2005   1.404       .  A
C2004      H2009   1.082       .  S
C2005      C2006   1.415       .  A
C2006      S2010   1.802       .  S
C2007      C2012   1.408       .  A
C2007      C2016   1.402       .  A
S2008      H2024   1.405       .  S
S2010      H2021   1.406       .  S
C2012      C2013   1.403       .  A
C2012      S2017   1.805       .  S
C2013      C2014   1.403       .  A
C2013      H2018   1.083       .  S
C2014      C2015   1.407       .  A
C2015      C2016   1.399       .  A
C2015      S2019   1.805       .  S
C2016      H2020   1.083       .  S
S2017      H2022   1.407       .  S
S2019      H2023   1.407       .  S
C2025      C2026   1.403       .  A
C2025      C2030   1.401       .  A
C2025      H2035   1.085       .  S
C2026      C2031   1.483       .  S
C2026      C2027   1.412   1_565  A
C2027      C2028   1.400       .  A
C2027      S2032   1.802       .  S
C2028      C2029   1.404   1_545  A
C2028      H2033   1.084       .  S
C2029      C2030   1.413       .  A
C2030      S2034   1.795       .  S
C2031      C2036   1.407       .  A
C2031      C2040   1.401   1_565  A
S2032      H2048   1.403       .  S
S2034      H2045   1.406       .  S
C2036      C2037   1.399       .  A
C2036      S2041   1.808       .  S
C2037      C2038   1.409   1_565  A
C2037      H2042   1.082       .  S
C2038      C2039   1.419       .  A
C2039      C2040   1.404       .  A
C2039      S2043   1.796       .  S
C2040      H2044   1.082       .  S
S2041      H2046   1.407       .  S
S2043      H2047   1.404       .  S
C2049      C2050   1.401       .  A
C2049      C2054   1.403       .  A
C2049      H2059   1.084       .  S
C2050      C2055   1.482       .  S
C2050      C2051   1.408   1_565  A
C2051      C2052   1.399       .  A
C2051      S2056   1.802       .  S
C2052      C2053   1.412   1_545  A
C2052      H2057   1.083       .  S
C2053      C2054   1.423       .  A
C2054      S2058   1.804       .  S
C2055      C2060   1.404       .  A
C2055      C2064   1.394       .  A
S2056      H2072   1.406       .  S
S2058      H2069   1.405       .  S
C2060      C2061   1.411       .  A
C2060      S2065   1.805   1_565  S
C2061      C2062   1.418       .  A
C2061      H2066   1.075       .  S
C2062      C2063   1.427       .  A
C2063      C2064   1.397       .  A
C2063      S2067   1.809       .  S
C2064      H2068   1.084       .  S
S2065      H2070   1.407       .  S
S2067      H2071   1.406       .  S
C2073      C2074   1.403       .  A
C2073      C2078   1.400       .  A
C2073      H2083   1.084       .  S
C2074      C2079   1.490       .  S
C2074      C2075   1.413       .  A
C2075      C2076   1.401       .  A
C2075      S2080   1.804       .  S
C2076      C2077   1.411       .  A
C2076      H2081   1.084       .  S
C2077      C2078   1.418       .  A
C2078      S2082   1.803       .  S
C2079      C2084   1.409       .  A
C2079      C2088   1.402       .  A
S2080      H2096   1.406       .  S
S2082      H2093   1.408       .  S
C2084      C2085   1.398       .  A
C2084      S2089   1.812       .  S
C2085      C2086   1.414       .  A
C2085      H2090   1.078       .  S
C2086      C2087   1.427       .  A
C2087      C2088   1.409       .  A
C2087      S2091   1.809       .  S
C2088      H2092   1.083       .  S
S2089      H2094   1.407       .  S
S2091      H2095   1.406       .  S
C2097      C2098   1.402       .  A
C2097      C2102   1.404       .  A
C2097      H2107   1.083       .  S
C2098      C2103   1.487       .  S
C2098      C2099   1.411       .  A
C2099      C2100   1.399       .  A
C2099      S2104   1.804       .  S
C2100      C2101   1.409       .  A
C2100      H2105   1.084       .  S
C2101      C2102   1.419       .  A
C2102      S2106   1.805       .  S
C2103      C2108   1.415       .  A
C2103      C2112   1.406       .  A
S2104      H2120   1.406       .  S
S2106      H2117   1.406       .  S
C2108      C2109   1.400       .  A
C2108      S2113   1.808       .  S
C2109      C2110   1.398       .  A
C2109      H2114   1.083       .  S
C2110      C2111   1.411       .  A
C2111      C2112   1.402       .  A
C2111      S2115   1.804       .  S
C2112      H2116   1.084       .  S
S2113      H2118   1.407       .  S
S2115      H2119   1.404       .  S
C2121      C2122   1.400       .  A
C2121      C2126   1.402       .  A
C2121      H2131   1.084       .  S
C2122      C2127   1.482       .  S
C2122      C2123   1.409       .  A
C2123      C2124   1.398       .  A
C2123      S2128   1.802       .  S
C2124      C2125   1.410       .  A
C2124      H2129   1.082       .  S
C2125      C2126   1.424       .  A
C2126      S2130   1.805       .  S
C2127      C2132   1.407       .  A
C2127      C2136   1.395       .  A
S2128      H2144   1.407       .  S
S2130      H2141   1.403       .  S
C2132      C2133   1.411       .  A
C2132      S2137   1.804       .  S
C2133      C2134   1.415       .  A
C2133      H2138   1.077       .  S
C2134      C2135   1.427       .  A
C2135      C2136   1.394       .  A
C2135      S2139   1.814       .  S
C2136      H2140   1.084       .  S
S2137      H2142   1.407       .  S
S2139      H2143   1.407       .  S
C2145      C2146   1.401       .  A
C2145      C2150   1.398       .  A
C2145      H2155   1.084       .  S
C2146      C2151   1.475       .  S
C2146      C2147   1.411       .  A
C2147      C2148   1.397       .  A
C2147      S2152   1.803       .  S
C2148      C2149   1.402       .  A
C2148      H2153   1.083       .  S
C2149      C2150   1.415       .  A
C2150      S2154   1.804       .  S
C2151      C2156   1.408       .  A
C2151      C2160   1.399       .  A
S2152      H2168   1.407       .  S
S2154      H2165   1.407       .  S
C2156      C2157   1.404       .  A
C2156      S2161   1.805       .  S
C2157      C2158   1.404       .  A
C2157      H2162   1.083       .  S
C2158      C2159   1.416       .  A
C2159      C2160   1.393       .  A
C2159      S2163   1.807       .  S
C2160      H2164   1.084       .  S
S2161      H2166   1.407       .  S
S2163      H2167   1.402       .  S
C2169      C2170   1.395       .  A
C2169      C2174   1.398       .  A
C2169      H2179   1.083       .  S
C2170      C2175   1.487       .  S
C2170      C2171   1.412       .  A
C2171      C2172   1.411       .  A
C2171      S2176   1.803       .  S
C2172      C2173   1.413       .  A
C2172      H2177   1.079       .  S
C2173      C2174   1.429       .  A
C2174      S2178   1.816   1_545  S
C2175      C2180   1.405       .  A
C2175      C2184   1.400       .  A
S2176      H2192   1.403       .  S
S2178      H2189   1.406       .  S
C2180      C2181   1.405       .  A
C2180      S2185   1.806       .  S
C2181      C2182   1.414       .  A
C2181      H2186   1.074       .  S
C2182      C2183   1.423       .  A
C2183      C2184   1.409       .  A
C2183      S2187   1.805       .  S
C2184      H2188   1.082       .  S
S2185      H2190   1.407       .  S
S2187      H2191   1.406       .  S
C2193      C2194   1.407       .  A
C2193      C2198   1.401       .  A
C2193      H2203   1.082       .  S
C2194      C2199   1.492       .  S
C2194      C2195   1.417       .  A
C2195      C2196   1.400       .  A
C2195      S2200   1.805       .  S
C2196      C2197   1.402       .  A
C2196      H2201   1.083       .  S
C2197      C2198   1.411       .  A
C2198      S2202   1.805       .  S
C2199      C2204   1.412       .  A
C2199      C2208   1.400       .  A
S2200      H2216   1.406       .  S
S2202      H2213   1.405       .  S
C2204      C2205   1.408       .  A
C2204      S2209   1.807       .  S
C2205      C2206   1.409       .  A
C2205      H2210   1.079       .  S
C2206      C2207   1.419       .  A
C2207      C2208   1.400       .  A
C2207      S2211   1.804       .  S
C2208      H2212   1.083       .  S
S2209      H2214   1.407       .  S
S2211      H2215   1.407       .  S
C2217      C2218   1.402   1_545  A
C2217      C2222   1.399       .  A
C2217      H2227   1.084       .  S
C2218      C2223   1.476       .  S
C2218      C2219   1.413       .  A
C2219      C2220   1.396       .  A
C2219      S2224   1.805       .  S
C2220      C2221   1.399   1_565  A
C2220      H2225   1.082       .  S
C2221      C2222   1.412       .  A
C2222      S2226   1.803       .  S
C2223      C2228   1.408       .  A
C2223      C2232   1.399       .  A
S2224      H2240   1.407       .  S
S2226      H2237   1.406       .  S
C2228      C2229   1.406       .  A
C2228      S2233   1.804   1_565  S
C2229      C2230   1.407       .  A
C2229      H2234   1.083       .  S
C2230      C2231   1.414       .  A
C2231      C2232   1.390       .  A
C2231      S2235   1.797       .  S
C2232      H2236   1.084       .  S
S2233      H2238   1.407   1_545  S
S2235      H2239   1.407       .  S
C2241      C2242   1.399       .  A
C2241      C2246   1.394       .  A
C2241      H2251   1.085       .  S
C2242      C2247   1.473       .  S
C2242      C2243   1.410       .  A
C2243      C2244   1.397       .  A
C2243      S2248   1.804       .  S
C2244      C2245   1.407       .  A
C2244      H2249   1.084       .  S
C2245      C2246   1.418       .  A
C2246      S2250   1.800       .  S
C2247      C2252   1.409       .  A
C2247      C2256   1.401       .  A
S2248      H2264   1.406       .  S
S2250      H2261   1.408       .  S
C2252      C2253   1.400       .  A
C2252      S2257   1.807       .  S
C2253      C2254   1.404       .  A
C2253      H2258   1.083       .  S
C2254      C2255   1.411       .  A
C2255      C2256   1.394       .  A
C2255      S2259   1.803       .  S
C2256      H2260   1.084       .  S
S2257      H2262   1.407       .  S
S2259      H2263   1.407       .  S
C2265      C2266   1.403       .  A
C2265      C2270   1.400       .  A
C2265      H2275   1.084       .  S
C2266      C2271   1.473       .  S
C2266      C2267   1.410       .  A
C2267      C2268   1.393       .  A
C2267      S2272   1.806       .  S
C2268      C2269   1.402       .  A
C2268      H2273   1.084       .  S
C2269      C2270   1.413       .  A
C2270      S2274   1.802       .  S
C2271      C2276   1.407       .  A
C2271      C2280   1.400       .  A
S2272      H2288   1.406       .  S
S2274      H2285   1.407       .  S
C2276      C2277   1.401       .  A
C2276      S2281   1.806       .  S
C2277      C2278   1.407       .  A
C2277      H2282   1.083       .  S
C2278      C2279   1.416       .  A
C2279      C2280   1.394       .  A
C2279      S2283   1.804       .  S
C2280      H2284   1.085       .  S
S2281      H2286   1.407       .  S
S2283      H2287   1.407       .  S
C2289      C2290   1.399       .  A
C2289      C2294   1.399       .  A
C2289      H2299   1.084       .  S
C2290      C2295   1.473       .  S
C2290      C2291   1.412       .  A
C2291      C2292   1.395       .  A
C2291      S2296   1.806       .  S
C2292      C2293   1.404       .  A
C2292      H2297   1.084       .  S
C2293      C2294   1.418       .  A
C2294      S2298   1.802       .  S
C2295      C2300   1.408       .  A
C2295      C2304   1.401       .  A
S2296      H2312   1.404       .  S
S2298      H2309   1.408       .  S
C2300      C2301   1.399       .  A
C2300      S2305   1.806       .  S
C2301      C2302   1.402       .  A
C2301      H2306   1.083       .  S
C2302      C2303   1.412       .  A
C2303      C2304   1.398       .  A
C2303      S2307   1.802       .  S
C2304      H2308   1.084       .  S
S2305      H2310   1.407       .  S
S2307      H2311   1.404       .  S
C2313      C2314   1.401       .  A
C2313      C2318   1.398       .  A
C2313      H2323   1.084       .  S
C2314      C2319   1.473       .  S
C2314      C2315   1.410       .  A
C2315      C2316   1.397       .  A
C2315      S2320   1.805       .  S
C2316      C2317   1.404       .  A
C2316      H2321   1.084       .  S
C2317      C2318   1.416       .  A
C2318      S2322   1.803       .  S
C2319      C2324   1.406       .  A
C2319      C2328   1.401       .  A
S2320      H2336   1.403       .  S
S2322      H2333   1.408       .  S
C2324      C2325   1.402       .  A
C2324      S2329   1.806       .  S
C2325      C2326   1.406       .  A
C2325      H2330   1.083       .  S
C2326      C2327   1.414       .  A
C2327      C2328   1.398       .  A
C2327      S2331   1.802       .  S
C2328      H2332   1.084       .  S
S2329      H2334   1.407       .  S
S2331      H2335   1.407       .  S
C2337      C2338   1.406       .  A
C2337      C2342   1.408       .  A
C2337      H2347   1.084       .  S
C2338      C2343   1.485       .  S
C2338      C2339   1.412       .  A
C2339      C2340   1.396       .  A
C2339      S2344   1.807       .  S
C2340      C2341   1.405       .  A
C2340      H2345   1.084       .  S
C2341      C2342   1.417       .  A
C2342      S2346   1.801       .  S
C2343      C2348   1.407       .  A
C2343      C2352   1.404       .  A
S2344      H2360   1.402       .  S
S2346      H2357   1.407       .  S
C2348      C2349   1.401       .  A
C2348      S2353   1.807       .  S
C2349      C2350   1.407   1_554  A
C2349      H2354   1.082   1_554  S
C2350      C2351   1.419       .  A
C2351      C2352   1.407   1_556  A
C2351      S2355   1.800       .  S
C2352      H2356   1.084       .  S
S2353      H2358   1.407       .  S
S2355      H2359   1.408       .  S
C2361      C2362   1.401       .  A
C2361      C2366   1.398       .  A
C2361      H2371   1.084       .  S
C2362      C2367   1.468       .  S
C2362      C2363   1.409       .  A
C2363      C2364   1.393       .  A
C2363      S2368   1.805       .  S
C2364      C2365   1.403       .  A
C2364      H2369   1.084       .  S
C2365      C2366   1.414       .  A
C2366      S2370   1.803       .  S
C2367      C2372   1.406       .  A
C2367      C2376   1.399       .  A
S2368      H2384   1.406       .  S
S2370      H2381   1.407       .  S
C2372      C2373   1.400       .  A
C2372      S2377   1.806       .  S
C2373      C2374   1.405       .  A
C2373      H2378   1.083       .  S
C2374      C2375   1.414       .  A
C2375      C2376   1.392       .  A
C2375      S2379   1.804       .  S
C2376      H2380   1.084       .  S
S2377      H2382   1.407       .  S
S2379      H2383   1.408       .  S
C2385      C2386   1.404       .  A
C2385      C2390   1.401   1_554  A
C2385      H2395   1.083       .  S
C2386      C2391   1.494       .  S
C2386      C2387   1.416       .  A
C2387      C2388   1.406   1_554  A
C2387      S2392   1.804       .  S
C2388      C2389   1.406       .  A
C2388      H2393   1.083       .  S
C2389      C2390   1.415       .  A
C2390      S2394   1.803       .  S
C2391      C2396   1.415       .  A
C2391      C2400   1.403   1_565  A
S2392      H2408   1.406       .  S
S2394      H2405   1.407       .  S
C2396      C2397   1.410       .  A
C2396      S2401   1.806       .  S
C2397      C2398   1.404       .  A
C2397      H2402   1.083       .  S
C2398      C2399   1.414   1_565  A
C2399      C2400   1.399       .  A
C2399      S2403   1.805       .  S
C2400      H2404   1.084       .  S
S2401      H2406   1.407       .  S
S2403      H2407   1.407       .  S
C2409      C2410   1.400       .  A
C2409      C2414   1.396       .  A
C2409      H2419   1.085       .  S
C2410      C2415   1.474       .  S
C2410      C2411   1.412       .  A
C2411      C2412   1.399       .  A
C2411      S2416   1.804       .  S
C2412      C2413   1.403       .  A
C2412      H2417   1.085       .  S
C2413      C2414   1.412       .  A
C2414      S2418   1.804       .  S
C2415      C2420   1.406       .  A
C2415      C2424   1.399       .  A
S2416      H2432   1.406       .  S
S2418      H2429   1.407       .  S
C2420      C2421   1.396       .  A
C2420      S2425   1.810       .  S
C2421      C2422   1.407       .  A
C2421      H2426   1.083       .  S
C2422      C2423   1.421       .  A
C2423      C2424   1.405       .  A
C2423      S2427   1.809       .  S
C2424      H2428   1.083       .  S
S2425      H2430   1.407       .  S
S2427      H2431   1.407       .  S
C2433      C2434   1.398       .  A
C2433      C2438   1.391       .  A
C2433      H2443   1.084       .  S
C2434      C2439   1.474       .  S
C2434      C2435   1.412       .  A
C2435      C2436   1.404       .  A
C2435      S2440   1.804       .  S
C2436      C2437   1.404       .  A
C2436      H2441   1.084       .  S
C2437      C2438   1.416       .  A
C2438      S2442   1.805       .  S
C2439      C2444   1.409       .  A
C2439      C2448   1.400       .  A
S2440      H2456   1.404       .  S
S2442      H2453   1.403       .  S
C2444      C2445   1.399       .  A
C2444      S2449   1.807       .  S
C2445      C2446   1.402       .  A
C2445      H2450   1.083       .  S
C2446      C2447   1.416       .  A
C2447      C2448   1.399       .  A
C2447      S2451   1.803       .  S
C2448      H2452   1.084       .  S
S2449      H2454   1.407       .  S
S2451      H2455   1.407       .  S
C2457      C2458   1.405   1_565  A
C2457      C2462   1.407       .  A
C2457      H2467   1.083       .  S
C2458      C2463   1.488   1_545  S
C2458      C2459   1.412       .  A
C2459      C2460   1.395       .  A
C2459      S2464   1.804       .  S
C2460      C2461   1.406       .  A
C2460      H2465   1.084       .  S
C2461      C2462   1.415   1_545  A
C2462      S2466   1.804       .  S
C2463      C2468   1.414       .  A
C2463      C2472   1.405   1_565  A
S2464      H2480   1.407       .  S
S2466      H2477   1.407       .  S
C2468      C2469   1.403       .  A
C2468      S2473   1.808       .  S
C2469      C2470   1.401       .  A
C2469      H2474   1.083       .  S
C2470      C2471   1.409   1_565  A
C2471      C2472   1.399       .  A
C2471      S2475   1.801       .  S
C2472      H2476   1.082       .  S
S2473      H2478   1.407       .  S
S2475      H2479   1.406       .  S
C2481      C2482   1.406       .  A
C2481      C2486   1.402       .  A
C2481      H2491   1.082       .  S
C2482      C2487   1.493       .  S
C2482      C2483   1.419       .  A
C2483      C2484   1.401       .  A
C2483      S2488   1.804       .  S
C2484      C2485   1.399       .  A
C2484      H2489   1.083       .  S
C2485      C2486   1.409       .  A
C2486      S2490   1.808       .  S
C2487      C2492   1.412       .  A
C2487      C2496   1.403       .  A
S2488      H2504   1.406       .  S
S2490      H2501   1.406       .  S
C2492      C2493   1.402       .  A
C2492      S2497   1.810       .  S
C2493      C2494   1.411       .  A
C2493      H2498   1.081       .  S
C2494      C2495   1.417       .  A
C2495      C2496   1.405       .  A
C2495      S2499   1.801       .  S
C2496      H2500   1.082       .  S
S2497      H2502   1.407       .  S
S2499      H2503   1.407       .  S
C2505      C2506   1.401       .  A
C2505      C2510   1.397       .  A
C2505      H2515   1.084       .  S
C2506      C2511   1.474       .  S
C2506      C2507   1.411       .  A
C2507      C2508   1.397       .  A
C2507      S2512   1.804       .  S
C2508      C2509   1.403       .  A
C2508      H2513   1.083       .  S
C2509      C2510   1.413       .  A
C2510      S2514   1.803       .  S
C2511      C2516   1.410       .  A
C2511      C2520   1.402       .  A
S2512      H2528   1.406       .  S
S2514      H2525   1.407       .  S
C2516      C2517   1.396       .  A
C2516      S2521   1.809       .  S
C2517      C2518   1.400       .  A
C2517      H2522   1.083       .  S
C2518      C2519   1.409       .  A
C2519      C2520   1.404       .  A
C2519      S2523   1.805       .  S
C2520      H2524   1.083       .  S
S2521      H2526   1.407       .  S
S2523      H2527   1.407       .  S
C2529      C2530   1.400       .  A
C2529      C2534   1.402       .  A
C2529      H2539   1.084       .  S
C2530      C2535   1.481       .  S
C2530      C2531   1.407       .  A
C2531      C2532   1.399       .  A
C2531      S2536   1.802       .  S
C2532      C2533   1.412       .  A
C2532      H2537   1.081       .  S
C2533      C2534   1.426       .  A
C2534      S2538   1.807       .  S
C2535      C2540   1.403       .  A
C2535      C2544   1.401       .  A
S2536      H2552   1.406       .  S
S2538      H2549   1.401       .  S
C2540      C2541   1.394       .  A
C2540      S2545   1.811       .  S
C2541      C2542   1.416       .  A
C2541      H2546   1.082       .  S
C2542      C2543   1.427       .  A
C2543      C2544   1.409       .  A
C2543      S2547   1.796       .  S
C2544      H2548   1.084       .  S
S2545      H2550   1.407   1_545  S
S2547      H2551   1.407       .  S
C2553      C2554   1.403       .  A
C2553      C2558   1.411       .  A
C2553      H2563   1.084       .  S
C2554      C2559   1.488       .  S
C2554      C2555   1.407       .  A
C2555      C2556   1.394       .  A
C2555      S2560   1.807       .  S
C2556      C2557   1.415       .  A
C2556      H2561   1.080       .  S
C2557      C2558   1.428       .  A
C2558      S2562   1.802       .  S
C2559      C2564   1.409       .  A
C2559      C2568   1.403       .  A
S2560      H2576   1.405       .  S
S2562      H2573   1.404       .  S
C2564      C2565   1.405       .  A
C2564      S2569   1.805       .  S
C2565      C2566   1.411       .  A
C2565      H2570   1.082       .  S
C2566      C2567   1.420       .  A
C2567      C2568   1.403       .  A
C2567      S2571   1.803       .  S
C2568      H2572   1.084       .  S
S2569      H2574   1.407       .  S
S2571      H2575   1.407       .  S
C2577      C2578   1.402       .  A
C2577      C2582   1.402       .  A
C2577      H2587   1.083       .  S
C2578      C2583   1.483       .  S
C2578      C2579   1.412       .  A
C2579      C2580   1.401       .  A
C2579      S2584   1.802       .  S
C2580      C2581   1.404       .  A
C2580      H2585   1.084       .  S
C2581      C2582   1.415       .  A
C2582      S2586   1.808       .  S
C2583      C2588   1.411       .  A
C2583      C2592   1.402       .  A
S2584      H2600   1.406       .  S
S2586      H2597   1.407       .  S
C2588      C2589   1.405       .  A
C2588      S2593   1.805       .  S
C2589      C2590   1.403       .  A
C2589      H2594   1.083       .  S
C2590      C2591   1.412       .  A
C2591      C2592   1.398       .  A
C2591      S2595   1.802       .  S
C2592      H2596   1.084       .  S
S2593      H2598   1.407       .  S
S2595      H2599   1.407       .  S
C2601      C2602   1.395       .  A
C2601      C2606   1.397       .  A
C2601      H2611   1.084       .  S
C2602      C2607   1.486       .  S
C2602      C2603   1.412   1_565  A
C2603      C2604   1.410       .  A
C2603      S2608   1.803       .  S
C2604      C2605   1.414   1_545  A
C2604      H2609   1.079       .  S
C2605      C2606   1.429       .  A
C2606      S2610   1.815       .  S
C2607      C2612   1.406   1_565  A
C2607      C2616   1.401       .  A
S2608      H2624   1.405       .  S
S2610      H2621   1.407       .  S
C2612      C2613   1.405       .  A
C2612      S2617   1.806       .  S
C2613      C2614   1.414   1_545  A
C2613      H2618   1.079       .  S
C2614      C2615   1.424       .  A
C2615      C2616   1.403       .  A
C2615      S2619   1.806       .  S
C2616      H2620   1.083       .  S
S2617      H2622   1.407       .  S
S2619      H2623   1.401       .  S
C2625      C2626   1.401       .  A
C2625      C2630   1.401       .  A
C2625      H2635   1.084       .  S
C2626      C2631   1.472       .  S
C2626      C2627   1.410       .  A
C2627      C2628   1.391       .  A
C2627      S2632   1.806   1_545  S
C2628      C2629   1.403       .  A
C2628      H2633   1.084       .  S
C2629      C2630   1.414       .  A
C2630      S2634   1.801       .  S
C2631      C2636   1.407       .  A
C2631      C2640   1.399   1_545  A
S2632      H2648   1.405   1_565  S
S2634      H2645   1.406       .  S
C2636      C2637   1.402       .  A
C2636      S2641   1.805       .  S
C2637      C2638   1.405   1_545  A
C2637      H2642   1.083       .  S
C2638      C2639   1.412       .  A
C2639      C2640   1.394       .  A
C2639      S2643   1.795       .  S
C2640      H2644   1.085       .  S
S2641      H2646   1.407       .  S
S2643      H2647   1.406       .  S
C2649      C2650   1.403       .  A
C2649      C2654   1.410       .  A
C2649      H2659   1.084       .  S
C2650      C2655   1.488       .  S
C2650      C2651   1.408       .  A
C2651      C2652   1.395       .  A
C2651      S2656   1.807       .  S
C2652      C2653   1.415       .  A
C2652      H2657   1.082       .  S
C2653      C2654   1.426       .  A
C2654      S2658   1.800       .  S
C2655      C2660   1.406       .  A
C2655      C2664   1.401       .  A
S2656      H2672   1.405       .  S
S2658      H2669   1.406       .  S
C2660      C2661   1.404       .  A
C2660      S2665   1.807       .  S
C2661      C2662   1.414       .  A
C2661      H2666   1.075       .  S
C2662      C2663   1.424       .  A
C2663      C2664   1.409       .  A
C2663      S2667   1.809       .  S
C2664      H2668   1.082       .  S
S2665      H2670   1.407       .  S
S2667      H2671   1.407       .  S
C2673      C2674   1.399       .  A
C2673      C2678   1.402       .  A
C2673      H2683   1.083       .  S
C2674      C2679   1.474       .  S
C2674      C2675   1.405       .  A
C2675      C2676   1.396       .  A
C2675      S2680   1.802       .  S
C2676      C2677   1.409       .  A
C2676      H2681   1.083       .  S
C2677      C2678   1.421       .  A
C2678      S2682   1.805       .  S
C2679      C2684   1.405       .  A
C2679      C2688   1.401       .  A
S2680      H2696   1.407       .  S
S2682      H2693   1.407       .  S
C2684      C2685   1.403       .  A
C2684      S2689   1.805       .  S
C2685      C2686   1.408       .  A
C2685      H2690   1.083       .  S
C2686      C2687   1.414       .  A
C2687      C2688   1.394       .  A
C2687      S2691   1.803       .  S
C2688      H2692   1.085       .  S
S2689      H2694   1.407       .  S
S2691      H2695   1.404       .  S
C2697      C2698   1.404       .  A
C2697      C2702   1.396       .  A
C2697      H2707   1.083       .  S
C2698      C2703   1.490       .  S
C2698      C2699   1.416       .  A
C2699      C2700   1.403       .  A
C2699      S2704   1.800       .  S
C2700      C2701   1.401       .  A
C2700      H2705   1.084       .  S
C2701      C2702   1.414       .  A
C2702      S2706   1.808       .  S
C2703      C2708   1.412       .  A
C2703      C2712   1.402       .  A
S2704      H2720   1.406       .  S
S2706      H2717   1.401       .  S
C2708      C2709   1.398       .  A
C2708      S2713   1.811       .  S
C2709      C2710   1.410       .  A
C2709      H2714   1.079       .  S
C2710      C2711   1.422       .  A
C2711      C2712   1.403       .  A
C2711      S2715   1.797       .  S
C2712      H2716   1.084       .  S
S2713      H2718   1.407       .  S
S2715      H2719   1.406       .  S
C2721      C2722   1.404       .  A
C2721      C2726   1.402       .  A
C2721      H2731   1.084       .  S
C2722      C2727   1.481       .  S
C2722      C2723   1.410       .  A
C2723      C2724   1.396       .  A
C2723      S2728   1.804       .  S
C2724      C2725   1.407       .  A
C2724      H2729   1.084       .  S
C2725      C2726   1.415       .  A
C2726      S2730   1.802       .  S
C2727      C2732   1.409       .  A
C2727      C2736   1.401       .  A
S2728      H2744   1.406       .  S
S2730      H2741   1.407       .  S
C2732      C2733   1.404       .  A
C2732      S2737   1.807       .  S
C2733      C2734   1.405       .  A
C2733      H2738   1.083       .  S
C2734      C2735   1.417       .  A
C2735      C2736   1.398       .  A
C2735      S2739   1.804       .  S
C2736      H2740   1.084       .  S
S2737      H2742   1.407       .  S
S2739      H2743   1.407       .  S
C2745      C2746   1.401       .  A
C2745      C2750   1.399       .  A
C2745      H2755   1.084       .  S
C2746      C2751   1.470       .  S
C2746      C2747   1.410       .  A
C2747      C2748   1.392       .  A
C2747      S2752   1.806       .  S
C2748      C2749   1.403       .  A
C2748      H2753   1.084       .  S
C2749      C2750   1.415       .  A
C2750      S2754   1.802       .  S
C2751      C2756   1.407       .  A
C2751      C2760   1.399       .  A
S2752      H2768   1.405       .  S
S2754      H2765   1.408       .  S
C2756      C2757   1.401       .  A
C2756      S2761   1.806       .  S
C2757      C2758   1.405       .  A
C2757      H2762   1.083       .  S
C2758      C2759   1.415       .  A
C2759      C2760   1.394       .  A
C2759      S2763   1.803       .  S
C2760      H2764   1.084       .  S
S2761      H2766   1.407       .  S
S2763      H2767   1.407       .  S
C2769      C2770   1.400       .  A
C2769      C2774   1.395       .  A
C2769      H2779   1.084       .  S
C2770      C2775   1.471       .  S
C2770      C2771   1.411       .  A
C2771      C2772   1.399       .  A
C2771      S2776   1.804       .  S
C2772      C2773   1.403       .  A
C2772      H2777   1.084       .  S
C2773      C2774   1.412       .  A
C2774      S2778   1.804       .  S
C2775      C2780   1.407       .  A
C2775      C2784   1.396       .  A
S2776      H2792   1.405       .  S
S2778      H2789   1.407   1_565  S
C2780      C2781   1.405       .  A
C2780      S2785   1.805       .  S
C2781      C2782   1.407       .  A
C2781      H2786   1.082       .  S
C2782      C2783   1.420       .  A
C2783      C2784   1.391       .  A
C2783      S2787   1.806       .  S
C2784      H2788   1.085       .  S
S2785      H2790   1.407       .  S
S2787      H2791   1.406       .  S
C2793      C2794   1.400       .  A
C2793      C2798   1.399       .  A
C2793      H2803   1.083       .  S
C2794      C2799   1.474       .  S
C2794      C2795   1.412       .  A
C2795      C2796   1.400       .  A
C2795      S2800   1.804       .  S
C2796      C2797   1.403       .  A
C2796      H2801   1.083       .  S
C2797      C2798   1.414       .  A
C2798      S2802   1.810       .  S
C2799      C2804   1.407       .  A
C2799      C2808   1.399       .  A
S2800      H2816   1.406       .  S
S2802      H2813   1.407       .  S
C2804      C2805   1.402       .  A
C2804      S2809   1.806       .  S
C2805      C2806   1.407       .  A
C2805      H2810   1.083       .  S
C2806      C2807   1.416       .  A
C2807      C2808   1.396       .  A
C2807      S2811   1.802       .  S
C2808      H2812   1.084       .  S
S2809      H2814   1.407       .  S
S2811      H2815   1.408       .  S
C2817      C2818   1.404       .  A
C2817      C2822   1.406       .  A
C2817      H2827   1.084       .  S
C2818      C2823   1.480       .  S
C2818      C2819   1.411       .  A
C2819      C2820   1.395       .  A
C2819      S2824   1.807       .  S
C2820      C2821   1.406       .  A
C2820      H2825   1.084       .  S
C2821      C2822   1.416       .  A
C2822      S2826   1.800       .  S
C2823      C2828   1.411       .  A
C2823      C2832   1.401       .  A
S2824      H2840   1.405       .  S
S2826      H2837   1.407       .  S
C2828      C2829   1.406       .  A
C2828      S2833   1.805       .  S
C2829      C2830   1.402       .  A
C2829      H2834   1.083       .  S
C2830      C2831   1.412       .  A
C2831      C2832   1.397       .  A
C2831      S2835   1.805       .  S
C2832      H2836   1.084       .  S
S2833      H2838   1.407       .  S
S2835      H2839   1.407       .  S
C2841      C2842   1.401       .  A
C2841      C2846   1.399       .  A
C2841      H2851   1.084       .  S
C2842      C2847   1.470       .  S
C2842      C2843   1.410       .  A
C2843      C2844   1.394       .  A
C2843      S2848   1.805       .  S
C2844      C2845   1.402       .  A
C2844      H2849   1.084       .  S
C2845      C2846   1.413       .  A
C2846      S2850   1.803       .  S
C2847      C2852   1.408       .  A
C2847      C2856   1.397       .  A
S2848      H2864   1.405       .  S
S2850      H2861   1.407       .  S
C2852      C2853   1.405       .  A
C2852      S2857   1.804       .  S
C2853      C2854   1.405       .  A
C2853      H2858   1.083       .  S
C2854      C2855   1.414       .  A
C2855      C2856   1.390       .  A
C2855      S2859   1.805       .  S
C2856      H2860   1.085       .  S
S2857      H2862   1.407       .  S
S2859      H2863   1.407       .  S
C2865      C2866   1.400       .  A
C2865      C2870   1.400       .  A
C2865      H2875   1.084       .  S
C2866      C2871   1.487       .  S
C2866      C2867   1.412       .  A
C2867      C2868   1.405       .  A
C2867      S2872   1.803       .  S
C2868      C2869   1.409       .  A
C2868      H2873   1.083       .  S
C2869      C2870   1.421       .  A
C2870      S2874   1.803       .  S
C2871      C2876   1.410       .  A
C2871      C2880   1.403       .  A
S2872      H2888   1.406       .  S
S2874      H2885   1.407       .  S
C2876      C2877   1.403       .  A
C2876      S2881   1.808       .  S
C2877      C2878   1.406       .  A
C2877      H2882   1.083       .  S
C2878      C2879   1.417       .  A
C2879      C2880   1.404       .  A
C2879      S2883   1.801       .  S
C2880      H2884   1.084       .  S
S2881      H2886   1.407       .  S
S2883      H2887   1.407       .  S
C2889      C2890   1.404       .  A
C2889      C2894   1.398       .  A
C2889      H2899   1.083       .  S
C2890      C2895   1.481       .  S
C2890      C2891   1.413       .  A
C2891      C2892   1.396       .  A
C2891      S2896   1.804       .  S
C2892      C2893   1.403       .  A
C2892      H2897   1.083       .  S
C2893      C2894   1.413       .  A
C2894      S2898   1.802       .  S
C2895      C2900   1.409       .  A
C2895      C2904   1.401       .  A
S2896      H2912   1.407       .  S
S2898      H2909   1.408   1_565  S
C2900      C2901   1.404       .  A
C2900      S2905   1.806       .  S
C2901      C2902   1.406       .  A
C2901      H2906   1.084       .  S
C2902      C2903   1.417       .  A
C2903      C2904   1.395       .  A
C2903      S2907   1.812       .  S
C2904      H2908   1.085       .  S
S2905      H2910   1.407       .  S
S2907      H2911   1.407       .  S
C2913      C2914   1.398       .  A
C2913      C2918   1.392       .  A
C2913      H2923   1.084       .  S
C2914      C2919   1.472       .  S
C2914      C2915   1.412       .  A
C2915      C2916   1.403       .  A
C2915      S2920   1.804       .  S
C2916      C2917   1.404       .  A
C2916      H2921   1.083       .  S
C2917      C2918   1.413       .  A
C2918      S2922   1.805       .  S
C2919      C2924   1.406       .  A
C2919      C2928   1.401       .  A
S2920      H2936   1.404       .  S
S2922      H2933   1.407       .  S
C2924      C2925   1.398       .  A
C2924      S2929   1.807       .  S
C2925      C2926   1.405       .  A
C2925      H2930   1.083       .  S
C2926      C2927   1.415       .  A
C2927      C2928   1.400       .  A
C2927      S2931   1.802       .  S
C2928      H2932   1.084       .  S
S2929      H2934   1.407       .  S
S2931      H2935   1.407       .  S
C2937      C2938   1.401       .  A
C2937      C2942   1.397       .  A
C2937      H2947   1.084       .  S
C2938      C2943   1.471       .  S
C2938      C2939   1.409       .  A
C2939      C2940   1.395       .  A
C2939      S2944   1.804       .  S
C2940      C2941   1.403       .  A
C2940      H2945   1.084       .  S
C2941      C2942   1.413       .  A
C2942      S2946   1.803       .  S
C2943      C2948   1.406       .  A
C2943      C2952   1.400       .  A
S2944      H2960   1.406       .  S
S2946      H2957   1.407       .  S
C2948      C2949   1.399       .  A
C2948      S2953   1.807       .  S
C2949      C2950   1.406       .  A
C2949      H2954   1.083       .  S
C2950      C2951   1.415       .  A
C2951      C2952   1.396       .  A
C2951      S2955   1.802       .  S
C2952      H2956   1.084       .  S
S2953      H2958   1.407       .  S
S2955      H2959   1.407       .  S
C2961      C2962   1.401       .  A
C2961      C2966   1.394       .  A
C2961      H2971   1.084       .  S
C2962      C2967   1.468       .  S
C2962      C2963   1.409       .  A
C2963      C2964   1.397       .  A
C2963      S2968   1.803       .  S
C2964      C2965   1.402       .  A
C2964      H2969   1.084       .  S
C2965      C2966   1.410       .  A
C2966      S2970   1.804       .  S
C2967      C2972   1.404       .  A
C2967      C2976   1.400       .  A
S2968      H2984   1.405       .  S
S2970      H2981   1.407       .  S
C2972      C2973   1.401       .  A
C2972      S2977   1.805       .  S
C2973      C2974   1.406       .  A
C2973      H2978   1.082       .  S
C2974      C2975   1.415       .  A
C2975      C2976   1.394       .  A
C2975      S2979   1.802       .  S
C2976      H2980   1.084       .  S
S2977      H2982   1.407       .  S
S2979      H2983   1.407       .  S
C2985      C2986   1.402       .  A
C2985      C2990   1.398       .  A
C2985      H2995   1.084       .  S
C2986      C2991   1.471       .  S
C2986      C2987   1.409       .  A
C2987      C2988   1.393       .  A
C2987      S2992   1.805       .  S
C2988      C2989   1.406       .  A
C2988      H2993   1.084       .  S
C2989      C2990   1.414       .  A
C2990      S2994   1.802       .  S
C2991      C2996   1.409       .  A
C2991      C3000   1.399       .  A
S2992      H3008   1.406       .  S
S2994      H3005   1.407       .  S
C2996      C2997   1.400       .  A
C2996      S3001   1.807       .  S
C2997      C2998   1.402       .  A
C2997      H3002   1.083       .  S
C2998      C2999   1.416       .  A
C2999      C3000   1.394       .  A
C2999      S3003   1.805       .  S
C3000      H3004   1.085       .  S
S3001      H3006   1.406       .  S
S3003      H3007   1.406       .  S
C3009      C3010   1.402       .  A
C3009      C3014   1.407       .  A
C3009      H3019   1.083       .  S
C3010      C3015   1.485       .  S
C3010      C3011   1.410       .  A
C3011      C3012   1.400       .  A
C3011      S3016   1.804       .  S
C3012      C3013   1.407       .  A
C3012      H3017   1.084       .  S
C3013      C3014   1.418       .  A
C3014      S3018   1.807   1_554  S
C3015      C3020   1.409       .  A
C3015      C3024   1.403       .  A
S3016      H3032   1.406       .  S
S3018      H3029   1.407   1_556  S
C3020      C3021   1.400       .  A
C3020      S3025   1.809       .  S
C3021      C3022   1.408       .  A
C3021      H3026   1.083       .  S
C3022      C3023   1.419       .  A
C3023      C3024   1.406       .  A
C3023      S3027   1.800       .  S
C3024      H3028   1.084       .  S
S3025      H3030   1.406       .  S
S3027      H3031   1.408       .  S
C3033      C3034   1.400       .  A
C3033      C3038   1.398       .  A
C3033      H3043   1.084       .  S
C3034      C3039   1.474       .  S
C3034      C3035   1.411       .  A
C3035      C3036   1.398       .  A
C3035      S3040   1.804       .  S
C3036      C3037   1.404       .  A
C3036      H3041   1.084       .  S
C3037      C3038   1.415       .  A
C3038      S3042   1.803       .  S
C3039      C3044   1.408       .  A
C3039      C3048   1.400       .  A
S3040      H3056   1.406       .  S
S3042      H3053   1.408       .  S
C3044      C3045   1.402       .  A
C3044      S3049   1.806       .  S
C3045      C3046   1.405       .  A
C3045      H3050   1.083       .  S
C3046      C3047   1.413       .  A
C3047      C3048   1.397       .  A
C3047      S3051   1.803       .  S
C3048      H3052   1.084       .  S
S3049      H3054   1.407       .  S
S3051      H3055   1.407       .  S
C3057      C3058   1.400       .  A
C3057      C3062   1.397   1_554  A
C3057      H3067   1.084       .  S
C3058      C3063   1.483       .  S
C3058      C3059   1.411       .  A
C3059      C3060   1.405   1_554  A
C3059      S3064   1.802       .  S
C3060      C3061   1.407       .  A
C3060      H3065   1.083       .  S
C3061      C3062   1.418       .  A
C3062      S3066   1.804       .  S
C3063      C3068   1.410       .  A
C3063      C3072   1.401       .  A
S3064      H3080   1.406       .  S
S3066      H3077   1.408       .  S
C3068      C3069   1.406       .  A
C3068      S3073   1.805       .  S
C3069      C3070   1.404       .  A
C3069      H3074   1.083       .  S
C3070      C3071   1.414       .  A
C3071      C3072   1.400       .  A
C3071      S3075   1.804       .  S
C3072      H3076   1.084       .  S
S3073      H3078   1.407       .  S
S3075      H3079   1.407       .  S
C3081      C3082   1.401       .  A
C3081      C3086   1.399       .  A
C3081      H3091   1.083       .  S
C3082      C3087   1.472       .  S
C3082      C3083   1.407       .  A
C3083      C3084   1.398       .  A
C3083      S3088   1.803       .  S
C3084      C3085   1.408       .  A
C3084      H3089   1.084       .  S
C3085      C3086   1.414       .  A
C3086      S3090   1.809       .  S
C3087      C3092   1.409       .  A
C3087      C3096   1.400       .  A
S3088      H3104   1.406       .  S
S3090      H3101   1.406       .  S
C3092      C3093   1.403       .  A
C3092      S3097   1.805       .  S
C3093      C3094   1.402       .  A
C3093      H3098   1.084       .  S
C3094      C3095   1.409       .  A
C3095      C3096   1.394       .  A
C3095      S3099   1.804       .  S
C3096      H3100   1.084       .  S
S3097      H3102   1.407       .  S
S3099      H3103   1.407       .  S
