geometry optimzed in LAMMPS
_audit_creation_date              2020-11-30 
_audit_creation_method            'lammps2cif' 
_symmetry_space_group_name_H-M    'P1' 
_symmetry_Int_Tables_number       1 
_symmetry_cell_setting            triclinic 
loop_ 
_symmetry_equiv_pos_as_xyz 
  x,y,z 
_cell_length_a                    66.73197768 
_cell_length_b                    66.7481751863213 
_cell_length_c                    66.63966271121227 
_cell_angle_alpha                 90.82694213395047 
_cell_angle_beta                  90.64858864450142 
_cell_angle_gamma                 90.23255784430125 
loop_ 
_atom_site_label 
_atom_site_type_symbol 
_atom_site_fract_x 
_atom_site_fract_y 
_atom_site_fract_z 
_atom_site_charge 
O1          O  0.74050910  0.59923898  0.82069984    -0.57500
C2          C  0.71033439  0.59384212  0.87500533     0.75100
O3          O  0.67177033  0.60318638  0.82403273    -0.58600
C4          C  0.73644454  0.59794527  0.80208000     0.75100
C5          C  0.70547202  0.54751699  0.82651851     0.77500
Cd6        Cd  0.70637956  0.59088900  0.83180124     1.37500
O7          O  0.72279024  0.60262171  0.86386735    -0.57500
O8          O  0.72132787  0.55778524  0.82846307    -0.56300
C9          C  0.67611563  0.62157361  0.82686509     0.77500
O10         O  0.68929267  0.55747827  0.82599701    -0.58700
O11         O  0.69694906  0.58350190  0.86613950    -0.57100
O12         O  0.71822742  0.59486247  0.79727624    -0.57100
O13         O  0.69440473  0.62549530  0.83015415    -0.56300
O14         O  0.81280668  0.59639120  0.73990160    -0.57500
C15         C  0.86464391  0.58610090  0.70885597     0.75100
O16         O  0.81261846  0.55012572  0.68934224    -0.58600
C17         C  0.79403664  0.59404601  0.73801718     0.75100
C18         C  0.81253497  0.61106070  0.67407968     0.77500
Cd19       Cd  0.82118874  0.58328935  0.70614575     1.37500
O20         O  0.85395662  0.58883954  0.72419804    -0.57500
O21         O  0.81951732  0.61680675  0.69096125    -0.56300
C22         C  0.81798184  0.53956259  0.70411352     0.77500
O23         O  0.80863962  0.59251577  0.67218799    -0.58700
O24         O  0.85518929  0.58338717  0.69247164    -0.57100
O25         O  0.78766177  0.58797017  0.72103057    -0.57100
O26         O  0.82366685  0.54915078  0.71961952    -0.56300
O27         O  0.58953831  0.74842149  0.82120078    -0.57500
C28         C  0.58533685  0.72349468  0.87715766     0.75100
O29         O  0.54911400  0.72466625  0.83025210    -0.58600
C30         C  0.59229007  0.74291461  0.80317881     0.75100
C31         C  0.61500186  0.68373713  0.83041334     0.77500
Cd32       Cd  0.58425670  0.71430989  0.83449115     1.37500
O33         O  0.59344617  0.73521402  0.86484944    -0.57500
O34         O  0.61912812  0.70180592  0.83491815    -0.56300
C35         C  0.54151946  0.70737908  0.82822247     0.77500
O36         O  0.59663023  0.67984257  0.82738065    -0.58700
O37         O  0.57739964  0.70780602  0.86975720    -0.57100
O38         O  0.59223640  0.72419097  0.79990256    -0.57100
O39         O  0.55376707  0.69292054  0.82811450    -0.56300
O40         O  0.59105112  0.82225523  0.74733059    -0.57500
C41         C  0.59637190  0.87679479  0.72232589     0.75100
O42         O  0.59695092  0.83036431  0.67669192    -0.58600
C43         C  0.59355448  0.80413794  0.74217888     0.75100
C44         C  0.54445036  0.83250440  0.70891975     0.77500
Cd45       Cd  0.58799684  0.83533034  0.71277789     1.37500
O46         O  0.60577686  0.86303488  0.73126489    -0.57500
O47         O  0.55328399  0.84342566  0.72192195    -0.56300
C48         C  0.61576190  0.83055320  0.67962608     0.77500
O49         O  0.55571578  0.82320225  0.69676267    -0.58700
O50         O  0.58346138  0.87138289  0.70928980    -0.57100
O51         O  0.59443852  0.80064606  0.72351114    -0.57100
O52         O  0.62154310  0.83244674  0.69768878    -0.56300
O53         O  0.84824734  0.71961871  0.59756294    -0.57500
C54         C  0.78985109  0.73422757  0.58718584     0.75100
O55         O  0.80891198  0.68479026  0.55054629    -0.58600
C56         C  0.86066065  0.70668609  0.59139804     0.75100
C57         C  0.81079277  0.67079657  0.61180826     0.77500
Cd58       Cd  0.81849055  0.70196427  0.58286552     1.37500
O59         O  0.80847803  0.73691489  0.58980734    -0.57500
O60         O  0.81577371  0.68842167  0.61700658    -0.56300
C61         C  0.81906109  0.69633443  0.53958040     0.77500
O62         O  0.80816735  0.66773133  0.59315371    -0.58700
O63         O  0.78429248  0.71646550  0.58317457    -0.57100
O64         O  0.85345779  0.69199046  0.58145275    -0.57100
O65         O  0.82866156  0.71017933  0.54858759    -0.56300
O66         O  0.73823240  0.81786224  0.59319932    -0.57500
C67         C  0.71589695  0.87399814  0.58765005     0.75100
O68         O  0.68439966  0.82694017  0.55416429    -0.58600
C69         C  0.73321990  0.79978310  0.58994546     0.75100
C70         C  0.67472119  0.82824237  0.61609820     0.77500
Cd71       Cd  0.70507855  0.83209569  0.58538783     1.37500
O72         O  0.72634102  0.86107885  0.59669032    -0.57500
O73         O  0.69294622  0.83155650  0.62040004    -0.56300
C74         C  0.69924077  0.82793546  0.54249280     0.77500
O75         O  0.67048706  0.82595616  0.59762366    -0.58700
O76         O  0.70062059  0.86758942  0.57815344    -0.57100
O77         O  0.71492591  0.79652831  0.58578436    -0.57100
O78         O  0.71622821  0.83070887  0.55067158    -0.56300
O79         O  0.66667817  0.99423437  0.59403678    -0.57500
C80         C  0.69813183  0.99867539  0.53879031     0.75100
O81         O  0.72299827  0.02791547  0.58511065    -0.58600
C82         C  0.67226331  0.99677760  0.61219468     0.75100
C83         C  0.71559235  0.95876492  0.58568705     0.77500
Cd84       Cd  0.70034038  0.99801088  0.58111072     1.37500
O85         O  0.68217978  0.99818027  0.54901305    -0.57500
O86         O  0.69897315  0.96263663  0.57731872    -0.56300
C87         C  0.70822992  0.03988405  0.58350791     0.77500
O88         O  0.72598190  0.97348981  0.59248298    -0.58700
O89         O  0.71463288  0.99809299  0.54833496    -0.57100
O90         O  0.69083909  0.99918979  0.61575635    -0.57100
O91         O  0.69097809  0.03206670  0.58235854    -0.56300
O92         O  0.59720113  0.99793548  0.67330847    -0.57500
C93         C  0.54660505  0.99597431  0.71156939     0.75100
O94         O  0.60212857  0.97636128  0.73322980    -0.58600
C95         C  0.61590926  0.99990126  0.67653809     0.75100
C96         C  0.58951688  0.04336814  0.71729717     0.77500
Cd97       Cd  0.58864123  0.00094851  0.70851217     1.37500
O98         O  0.55496799  0.99691764  0.69456089    -0.57500
O99         O  0.58295460  0.03576730  0.70099676    -0.56300
C100        C  0.59825570  0.96156712  0.72145458     0.77500
O101        O  0.59664364  0.03120980  0.73010709    -0.58700
O102        O  0.55784629  0.99714887  0.72697109    -0.57100
O103        O  0.62178979  0.00273742  0.69452741    -0.57100
O104        O  0.59067490  0.96539271  0.70448344    -0.56300
O105        O  0.81407550  0.39800525  0.73761370    -0.57500
C106        C  0.86779874  0.40494005  0.71068755     0.75100
O107        O  0.81614920  0.39847673  0.66944440    -0.58600
C108        C  0.79558454  0.40116598  0.73470367     0.75100
C109        C  0.82112766  0.45245013  0.70227275     0.77500
Cd110      Cd  0.82510213  0.40922008  0.70451848     1.37500
O111        O  0.85559270  0.39773558  0.72312736    -0.57500
O112        O  0.82772063  0.44361782  0.71765047    -0.56300
C113        C  0.82062212  0.38023904  0.67191698     0.77500
O114        O  0.81592926  0.44129863  0.68754221    -0.58700
O115        O  0.86024371  0.41460737  0.69630618    -0.57100
O116        O  0.79049261  0.40654079  0.71725883    -0.57100
O117        O  0.82605742  0.37550480  0.68943304    -0.56300
O118        O  0.73994714  0.40162557  0.81543445    -0.57500
C119        C  0.72303961  0.41407634  0.87042999     0.75100
O120        O  0.69240324  0.44979411  0.82736661    -0.58600
C121        C  0.73608748  0.40476508  0.79713853     0.75100
C122        C  0.67487640  0.38914777  0.82839885     0.77500
Cd123      Cd  0.70936202  0.41634669  0.82908945     1.37500
O124        O  0.73211827  0.40489366  0.85654160    -0.57500
O125        O  0.69221690  0.38393716  0.83394743    -0.56300
C126        C  0.70822363  0.45995848  0.82471048     0.77500
O127        O  0.67330682  0.40695688  0.82225227    -0.58700
O128        O  0.70812390  0.42444314  0.86514740    -0.57100
O129        O  0.71887484  0.41174015  0.79315584    -0.57100
O130        O  0.72417877  0.44992682  0.82331940    -0.56300
O131        O  0.59719079  0.27385074  0.85846431    -0.57500
C132        C  0.58832349  0.26604782  0.80108536     0.75100
O133        O  0.54944487  0.31147919  0.84172385    -0.58600
C134        C  0.58602955  0.28020609  0.87238313     0.75100
C135        C  0.61150732  0.32904853  0.83047669     0.77500
Cd136      Cd  0.58241509  0.29609968  0.83231174     1.37500
O137        O  0.58528818  0.26136321  0.81914590    -0.57500
O138        O  0.61609768  0.31163202  0.83600643    -0.56300
C139        C  0.53944756  0.30272016  0.82790469     0.77500
O140        O  0.59340178  0.33142962  0.82517481    -0.58700
O141        O  0.58953560  0.28462045  0.79754932    -0.57100
O142        O  0.57337665  0.29339299  0.86761706    -0.57100
O143        O  0.54945221  0.29265120  0.81536501    -0.56300
O144        O  0.81389364  0.25481014  0.59554210    -0.57500
C145        C  0.87161167  0.27026711  0.58602511     0.75100
O146        O  0.83299615  0.30399170  0.55075729    -0.58600
C147        C  0.79700017  0.25795907  0.58738865     0.75100
C148        C  0.82588327  0.31807028  0.61051636     0.77500
Cd149      Cd  0.83085767  0.28470502  0.58221935     1.37500
O150        O  0.85736077  0.26138823  0.59463413    -0.57500
O151        O  0.83334187  0.30147924  0.61549996    -0.56300
C152        C  0.83054128  0.28887832  0.53923025     0.77500
O153        O  0.82072017  0.31957140  0.59227224    -0.58700
O154        O  0.86705169  0.28557761  0.57605652    -0.57100
O155        O  0.79534673  0.27410788  0.57780911    -0.57100
O156        O  0.82797021  0.27216915  0.54755625    -0.56300
O157        O  0.58970032  0.18558878  0.74381170    -0.57500
C158        C  0.58711552  0.12987503  0.71715890     0.75100
O159        O  0.55243386  0.18311678  0.69122829    -0.58600
C160        C  0.59027821  0.20387720  0.73910955     0.75100
C161        C  0.61262376  0.17551686  0.67689474     0.77500
Cd162      Cd  0.58390667  0.17228462  0.70912328     1.37500
O163        O  0.59503256  0.14269135  0.72907172    -0.57500
O164        O  0.61776325  0.17105740  0.69461343    -0.56300
C165        C  0.54085314  0.17640598  0.70451650     0.77500
O166        O  0.59422962  0.17927037  0.67400394    -0.58700
O167        O  0.57854552  0.13675516  0.70171061    -0.57100
O168        O  0.58950743  0.20737442  0.72051989    -0.57100
O169        O  0.54916688  0.16771382  0.71908849    -0.56300
O170        O  0.72103773  0.13795124  0.58560216    -0.57500
C171        C  0.73244844  0.19930526  0.58790536     0.75100
O172        O  0.68205265  0.17687274  0.55150829    -0.58600
C173        C  0.70579535  0.12653958  0.58541668     0.75100
C174        C  0.67218599  0.17557238  0.61417978     0.77500
Cd175      Cd  0.70131137  0.16933233  0.58292311     1.37500
O176        O  0.73408068  0.18211640  0.59559830    -0.57500
O177        O  0.68989442  0.16984345  0.61782822    -0.56300
C178        C  0.69491012  0.16898261  0.53996701     0.77500
O179        O  0.66815973  0.18004459  0.59614076    -0.58700
O180        O  0.71608571  0.20283507  0.57891439    -0.57100
O181        O  0.68897202  0.13514169  0.58519188    -0.57100
O182        O  0.71025591  0.16169270  0.54833835    -0.56300
O183        O  0.99611500  0.29870329  0.55436901    -0.57500
C184        C  0.99505522  0.31221859  0.61519558     0.75100
O185        O  0.97042091  0.25426585  0.59435703    -0.58600
C186        C  0.99668689  0.28310411  0.54335931     0.75100
C187        C  0.03715569  0.26959199  0.59469730     0.77500
Cd188      Cd  0.99624610  0.28054882  0.58609646     1.37500
O189        O  0.99494183  0.31566475  0.59653938    -0.57500
O190        O  0.03192225  0.28627417  0.58767385    -0.56300
C191        C  0.95599212  0.26548245  0.58899698     0.77500
O192        O  0.02329774  0.25678039  0.59745393    -0.58700
O193        O  0.99496345  0.29400379  0.62032498    -0.57100
O194        O  0.99761279  0.26643691  0.55222050    -0.57100
O195        O  0.96044161  0.28283249  0.58315346    -0.56300
O196        O  0.99557079  0.44031879  0.68134995    -0.57500
C197        C  0.99627432  0.37764360  0.67268893     0.75100
O198        O  0.02245658  0.40365561  0.72688936    -0.58600
C199        C  0.99552563  0.45172600  0.69675508     0.75100
C200        C  0.95417504  0.40531561  0.71029708     0.77500
Cd201      Cd  0.99581356  0.40976455  0.70086893     1.37500
O202        O  0.99574616  0.39570138  0.66695954    -0.57500
O203        O  0.96079416  0.41426957  0.69515640    -0.56300
C204        C  0.03649105  0.40649880  0.71439541     0.77500
O205        O  0.96718579  0.39903497  0.72285267    -0.58700
O206        O  0.99680984  0.37470388  0.69141560    -0.57100
O207        O  0.99619880  0.44349355  0.71379879    -0.57100
O208        O  0.03144781  0.41073464  0.69661266    -0.56300
O209        O  0.17964545  0.24840259  0.59807911    -0.57500
C210        C  0.12284128  0.27235497  0.59779189     0.75100
O211        O  0.16638431  0.31794457  0.60176116    -0.58600
C212        C  0.19780253  0.25364172  0.59566467     0.75100
C213        C  0.16737514  0.28710543  0.54668629     0.77500
Cd214      Cd  0.16494722  0.28208483  0.59030255     1.37500
O215        O  0.13613787  0.25885220  0.59793645    -0.57500
O216        O  0.15725955  0.27342833  0.55477164    -0.56300
C217        C  0.17104490  0.31457792  0.61986734     0.77500
O218        O  0.17588797  0.29935787  0.55871394    -0.58700
O219        O  0.12906021  0.28997083  0.59482136    -0.57100
O220        O  0.20055470  0.27193328  0.59215408    -0.57100
O221        O  0.17367818  0.29630155  0.62407807    -0.56300
O222        O  0.25612266  0.17497224  0.59178678    -0.57500
C223        C  0.28295522  0.11994790  0.58638363     0.75100
O224        O  0.30778149  0.17067947  0.55166423    -0.58600
C225        C  0.26070961  0.19335453  0.59228300     0.75100
C226        C  0.32149177  0.16713279  0.61542372     0.77500
Cd227      Cd  0.29032130  0.16262501  0.58417787     1.37500
O228        O  0.27118546  0.13230161  0.59467284    -0.57500
O229        O  0.30347475  0.16262383  0.61911615    -0.56300
C230        C  0.29277722  0.16672257  0.54040460     0.77500
O231        O  0.32532604  0.17034558  0.59714483    -0.58700
O232        O  0.29799383  0.12734527  0.57772518    -0.57100
O233        O  0.27914992  0.19743800  0.59013109    -0.57100
O234        O  0.27706788  0.16134102  0.54933550    -0.56300
O235        O  0.39723612  0.13801515  0.72952435    -0.57500
C236        C  0.40509890  0.20064504  0.74072272     0.75100
O237        O  0.44178946  0.18014507  0.69376640    -0.58600
C238        C  0.40800668  0.12568461  0.71984630     0.75100
C239        C  0.38202313  0.16997529  0.67937222     0.77500
Cd240      Cd  0.41148333  0.16825022  0.71205201     1.37500
O241        O  0.40602674  0.18259021  0.74625421    -0.57500
O242        O  0.37716890  0.16828760  0.69755215    -0.56300
C243        C  0.45425944  0.17418142  0.70687522     0.77500
O244        O  0.40062822  0.17164226  0.67605937    -0.58700
O245        O  0.40602549  0.20348419  0.72204684    -0.57100
O246        O  0.42056000  0.13324698  0.70807014    -0.57100
O247        O  0.44692279  0.16545582  0.72183597    -0.56300
O248        O  0.40406533  0.26056039  0.81877894    -0.57500
C249        C  0.40780220  0.28135332  0.87249639     0.75100
O250        O  0.44220110  0.31213728  0.83895004    -0.58600
C251        C  0.40354664  0.26493239  0.80033519     0.75100
C252        C  0.38103508  0.32848572  0.82747587     0.77500
Cd253      Cd  0.40932204  0.29529622  0.83142528     1.37500
O254        O  0.39537628  0.27471275  0.85955307    -0.57500
O255        O  0.37539758  0.31064219  0.83013979    -0.56300
C256        C  0.45229838  0.30134664  0.82704005     0.77500
O257        O  0.39972267  0.33117635  0.82588506    -0.58700
O258        O  0.42030073  0.29407973  0.86636925    -0.57100
O259        O  0.40447660  0.28342398  0.79633888    -0.57100
O260        O  0.44233987  0.28915378  0.81617830    -0.56300
O261        O  0.17555083  0.40904674  0.74348742    -0.57500
C262        C  0.12208012  0.40796813  0.71569561     0.75100
O263        O  0.17689596  0.44481753  0.69087169    -0.58600
C264        C  0.19408487  0.41127299  0.74023429     0.75100
C265        C  0.17094714  0.38067705  0.67877057     0.77500
Cd266      Cd  0.16440919  0.41359986  0.70806898     1.37500
O267        O  0.13513414  0.40309512  0.72867494    -0.57500
O268        O  0.17301961  0.37862421  0.69749239    -0.56300
C269        C  0.16632049  0.45671516  0.70129756     0.77500
O270        O  0.16681116  0.39832102  0.67326632    -0.58700
O271        O  0.12852518  0.41478900  0.69937828    -0.57100
O272        O  0.19897825  0.41402609  0.72217691    -0.57100
O273        O  0.15524302  0.44873103  0.71418259    -0.56300
O274        O  0.25137731  0.41356813  0.82117461    -0.57500
C275        C  0.27659345  0.41152918  0.87534763     0.75100
O276        O  0.32242187  0.40828628  0.83139979    -0.58600
C277        C  0.25545163  0.41264750  0.80269658     0.75100
C278        C  0.29206904  0.46063829  0.82998280     0.77500
Cd279      Cd  0.28624792  0.41772334  0.83360023     1.37500
O280        O  0.26820095  0.40108066  0.86163471    -0.57500
O281        O  0.27698097  0.45311794  0.83837609    -0.56300
C282        C  0.31941726  0.38962604  0.82933759     0.77500
O283        O  0.30485266  0.44845267  0.82306456    -0.58700
O284        O  0.28928260  0.42432560  0.86971557    -0.57100
O285        O  0.27387319  0.41305109  0.79839259    -0.57100
O286        O  0.30126650  0.38407443  0.82867528    -0.56300
O287        O  0.31683204  0.99358790  0.55165901    -0.57500
C288        C  0.33313429  0.99644229  0.61271741     0.75100
O289        O  0.27549230  0.02014896  0.59401321    -0.58600
C290        C  0.30090039  0.98878897  0.54209583     0.75100
C291        C  0.28836740  0.95332558  0.59416082     0.77500
Cd292      Cd  0.30077480  0.99329407  0.58468421     1.37500
O293        O  0.33632610  0.99640038  0.59399904    -0.57500
O294        O  0.30555969  0.95765446  0.58761235    -0.56300
C295        C  0.28617036  0.03406698  0.58672366     0.77500
O296        O  0.27617302  0.96776671  0.59660584    -0.58700
O297        O  0.31508582  0.99458838  0.61809888    -0.57100
O298        O  0.28564776  0.98516023  0.55248701    -0.57100
O299        O  0.30269922  0.02885080  0.57933896    -0.56300
O300        O  0.45138704  0.99509442  0.69493272    -0.57500
C301        C  0.39316438  0.00041317  0.67538820     0.75100
O302        O  0.40756500  0.97215889  0.73441112    -0.58600
C303        C  0.46053102  0.99386737  0.71165833     0.75100
C304        C  0.41261419  0.03933353  0.72137431     0.77500
Cd305      Cd  0.41831583  0.99805501  0.70988746     1.37500
O306        O  0.41208961  0.00082577  0.67355756    -0.57500
O307        O  0.42695287  0.03298072  0.71087712    -0.56300
C308        C  0.40793602  0.95816924  0.72119782     0.77500
O309        O  0.40168161  0.02612505  0.72947059    -0.58700
O310        O  0.38644936  0.99899668  0.69297850    -0.57100
O311        O  0.44997825  0.99394016  0.72737539    -0.57100
O312        O  0.41257613  0.96302975  0.70359311    -0.56300
O313        O  0.98841660  0.68560485  0.54715277    -0.57500
C314        C  0.98917481  0.66929321  0.60881576     0.75100
O315        O  0.01605974  0.72497480  0.58915755    -0.58600
C316        C  0.98578712  0.70211670  0.53826328     0.75100
C317        C  0.94667705  0.70733002  0.59007797     0.77500
Cd318      Cd  0.98786471  0.70041423  0.58082234     1.37500
O319        O  0.98714498  0.66538481  0.59016433    -0.57500
O320        O  0.95290209  0.69267324  0.57972340    -0.56300
C321        C  0.02948278  0.71194096  0.58530785     0.77500
O322        O  0.95978772  0.72023315  0.59589580    -0.58700
O323        O  0.99098705  0.68754716  0.61403796    -0.57100
O324        O  0.98373262  0.71765525  0.54920340    -0.57100
O325        O  0.02322782  0.69462634  0.58033249    -0.56300
O326        O  0.99319191  0.59042993  0.66557095    -0.57500
C327        C  0.99530864  0.53783665  0.69695424     0.75100
O328        O  0.01910998  0.59073962  0.72664022    -0.58600
C329        C  0.99311749  0.60902953  0.66975645     0.75100
C330        C  0.95168210  0.58291279  0.70895059     0.77500
Cd331      Cd  0.99384192  0.58016941  0.70018929     1.37500
O332        O  0.99522117  0.54854645  0.68139304    -0.57500
O333        O  0.95891915  0.57981672  0.69182064    -0.56300
C334        C  0.03378438  0.58857563  0.71472996     0.77500
O335        O  0.96431818  0.58598112  0.72321612    -0.58700
O336        O  0.99559142  0.54690478  0.71375835    -0.57100
O337        O  0.99398872  0.61407053  0.68818706    -0.57100
O338        O  0.02970116  0.58287168  0.69697021    -0.56300
O339        O  0.40239288  0.72978728  0.86592393    -0.57500
C340        C  0.40692434  0.73827990  0.80418335     0.75100
O341        O  0.44670401  0.72176970  0.83552143    -0.58600
C342        C  0.41117510  0.71849778  0.87833062     0.75100
C343        C  0.38058730  0.67905942  0.83121564     0.77500
Cd344      Cd  0.41203075  0.70950570  0.83572378     1.23100
O345        O  0.40183559  0.74208159  0.82209768    -0.57500
O346        O  0.37697710  0.69694193  0.83640974    -0.56300
C347        C  0.45491549  0.70528704  0.83104052     0.77500
O348        O  0.39875388  0.67521747  0.82732104    -0.58700
O349        O  0.41288357  0.72064906  0.80055542    -0.57100
O350        O  0.42015510  0.70345468  0.87106624    -0.57100
O351        O  0.44334653  0.69023287  0.82887814    -0.56300
O352        O  0.40661327  0.86023178  0.73573345    -0.57500
C353        C  0.40882423  0.79986140  0.74366182     0.75100
O354        O  0.40169729  0.82195975  0.67908662    -0.58600
C355        C  0.40738525  0.87277388  0.72166626     0.75100
C356        C  0.45719627  0.82974745  0.70934729     0.77500
Cd357      Cd  0.41375258  0.83062990  0.71384361     1.37500
O358        O  0.40293155  0.81762519  0.74679686    -0.57500
O359        O  0.44847906  0.83992349  0.72276361    -0.56300
C360        C  0.38317791  0.82351744  0.68275311     0.77500
O361        O  0.44580151  0.82038205  0.69705090    -0.58700
O362        O  0.41621083  0.79624077  0.72661818    -0.57100
O363        O  0.41099415  0.86581959  0.70430771    -0.57100
O364        O  0.37885670  0.82760209  0.70079928    -0.56300
O365        O  0.25569885  0.81356620  0.60428277    -0.57500
C366        C  0.28253169  0.86796114  0.59687723     0.75100
O367        O  0.32253402  0.81480573  0.60338655    -0.58600
C368        C  0.25751545  0.79542333  0.59872852     0.75100
C369        C  0.29158697  0.82340993  0.54791020     0.77500
Cd370      Cd  0.28834496  0.82516335  0.59178852     1.37500
O371        O  0.26807354  0.85591466  0.59928060    -0.57500
O372        O  0.27508500  0.82478242  0.55703534    -0.56300
C373        C  0.31982155  0.81892786  0.62181347     0.77500
O374        O  0.30693113  0.82213260  0.55911245    -0.58700
O375        O  0.29906926  0.86025545  0.59203863    -0.57100
O376        O  0.27421764  0.79060366  0.59126368    -0.57100
O377        O  0.30230921  0.82426654  0.62645573    -0.56300
O378        O  0.25010909  0.59582160  0.82473377    -0.57500
C379        C  0.27518875  0.58854532  0.87991743     0.75100
O380        O  0.30624077  0.55902805  0.83335392    -0.58600
C381        C  0.25406080  0.59431972  0.80623296     0.75100
C382        C  0.31643672  0.61939529  0.83245243     0.77500
Cd383      Cd  0.28468121  0.58928713  0.83720596     1.37500
O384        O  0.26576435  0.59990267  0.86805102    -0.57500
O385        O  0.29928850  0.62399006  0.83901123    -0.56300
C386        C  0.29167810  0.54691382  0.83113161     0.77500
O387        O  0.31872830  0.60118121  0.82755242    -0.58700
O388        O  0.28893807  0.57815750  0.87215459    -0.57100
O389        O  0.27232926  0.59187257  0.80196209    -0.57100
O390        O  0.27434728  0.55446476  0.83113506    -0.56300
O391        O  0.17425657  0.74148460  0.60301632    -0.57500
C392        C  0.11633918  0.71397245  0.59259497     0.75100
O393        O  0.16582688  0.69147047  0.55732313    -0.58600
C394        C  0.19201110  0.73778271  0.59750316     0.75100
C395        C  0.16641899  0.67865878  0.62070213     0.77500
Cd396      Cd  0.15969479  0.70920938  0.59045036     1.37500
O397        O  0.12775970  0.72911879  0.59486302    -0.57500
O398        O  0.16219841  0.69660614  0.62535304    -0.56300
C399        C  0.16083494  0.70628797  0.54664015     0.77500
O400        O  0.16858050  0.67497876  0.60209828    -0.58700
O401        O  0.12501320  0.69723243  0.59113919    -0.57100
O402        O  0.19492369  0.72066394  0.58964721    -0.57100
O403        O  0.15590144  0.72195548  0.55619349    -0.56300
O404        O  0.17392077  0.59371327  0.74752644    -0.57500
C405        C  0.11933230  0.59167665  0.71920084     0.75100
O406        O  0.16973284  0.59895214  0.67853417    -0.58600
C407        C  0.19244801  0.59251935  0.74384053     0.75100
C408        C  0.16425905  0.54342388  0.70435759     0.77500
Cd409      Cd  0.16197634  0.58659267  0.71258448     1.37500
O410        O  0.13163461  0.59147038  0.73383204    -0.57500
O411        O  0.15295047  0.55092554  0.71750719    -0.56300
C412        C  0.16727130  0.61742049  0.68238597     0.77500
O413        O  0.17453579  0.55576581  0.69448089    -0.58700
O414        O  0.12673132  0.59000128  0.70186310    -0.57100
O415        O  0.19696015  0.58958330  0.72567104    -0.57100
O416        O  0.16336492  0.62185239  0.70046961    -0.56300
O417        O  0.60025502  0.32644368  0.99438543    -0.57500
C418        C  0.54561298  0.29793678  0.00140277     0.75100
O419        O  0.59669877  0.26645957  0.97084257    -0.58600
C420        C  0.61793824  0.32106724  0.99046243     0.75100
C421        C  0.59675350  0.28075644  0.03717086     0.77500
Cd422      Cd  0.58740834  0.29218567  0.99685804     1.37500
O423        O  0.55727492  0.31260269  0.99832692    -0.57500
O424        O  0.59350272  0.29860655  0.03202794    -0.56300
C425        C  0.58756958  0.27576694  0.95696442     0.77500
O426        O  0.59648749  0.26750337  0.02324694    -0.58700
O427        O  0.55342520  0.28073943  0.00287623    -0.57100
O428        O  0.62116619  0.30235997  0.98924904    -0.57100
O429        O  0.57790447  0.29122774  0.96203515    -0.56300
O430        O  0.67463877  0.39937286  0.99197106    -0.57500
C431        C  0.70742563  0.45321778  0.99742865     0.75100
O432        O  0.73079358  0.39962092  0.02355582    -0.58600
C433        C  0.67954455  0.38138181  0.98787363     0.75100
C434        C  0.72521288  0.40968448  0.95512078     0.77500
Cd435      Cd  0.70926765  0.41099376  0.99457444     1.37500
O436        O  0.69160155  0.44272534  0.99534893    -0.57500
O437        O  0.70840724  0.41712520  0.95955192    -0.56300
C438        C  0.71685119  0.40255395  0.03617272     0.77500
O439        O  0.73564246  0.40234554  0.96936587    -0.58700
O440        O  0.72395298  0.44398687  0.99838154    -0.57100
O441        O  0.69798178  0.37778431  0.98592104    -0.57100
O442        O  0.70044018  0.40900755  0.02925637    -0.56300
O443        O  0.58548887  0.24931526  0.17360916    -0.57500
C444        C  0.59362853  0.27765853  0.12233858     0.75100
O445        O  0.55288376  0.30223655  0.17549443    -0.58600
C446        C  0.58712851  0.25258271  0.19228890     0.75100
C447        C  0.61435585  0.31593886  0.17019729     0.77500
Cd448      Cd  0.58391629  0.28496051  0.16363747     1.37500
O449        O  0.59511726  0.26374575  0.13498530    -0.57500
O450        O  0.61888822  0.29762473  0.16795336    -0.56300
C451        C  0.54099798  0.29347137  0.16325627     0.77500
O452        O  0.59581695  0.31972101  0.17097938    -0.58700
O453        O  0.58777941  0.29450252  0.12884253    -0.57100
O454        O  0.58784390  0.27079399  0.19783437    -0.57100
O455        O  0.54894867  0.28129717  0.15107370    -0.56300
O456        O  0.59580233  0.13456793  0.26297587    -0.57500
C457        C  0.58773486  0.19087103  0.25254872     0.75100
O458        O  0.55265478  0.17568741  0.30154359    -0.58600
C459        C  0.59409067  0.12121684  0.27614319     0.75100
C460        C  0.61268620  0.17067985  0.31696318     0.77500
Cd461      Cd  0.58368090  0.16257922  0.28489535     1.37500
O462        O  0.58675503  0.17218545  0.24921476    -0.57500
O463        O  0.61564358  0.17583636  0.29902450    -0.56300
C464        C  0.54064076  0.16493798  0.29117724     0.77500
O465        O  0.59578509  0.16285609  0.32041928    -0.58700
O466        O  0.58767730  0.19646762  0.27079204    -0.57100
O467        O  0.58836317  0.12701656  0.29326252    -0.57100
O468        O  0.54855873  0.15319983  0.27860584    -0.56300
O469        O  0.74251808  0.40374992  0.17581653    -0.57500
C470        C  0.71477686  0.40375098  0.12235915     0.75100
O471        O  0.67259580  0.39621062  0.17079958    -0.58600
C472        C  0.73916828  0.40355111  0.19443514     0.75100
C473        C  0.69957298  0.45046849  0.17274244     0.77500
Cd474      Cd  0.70731534  0.40835297  0.16499994     1.37500
O475        O  0.72686828  0.39689265  0.13526446    -0.57500
O476        O  0.71577163  0.44435327  0.16521243    -0.56300
C477        C  0.67644614  0.37766089  0.16969874     0.77500
O478        O  0.68648973  0.43726158  0.17633223    -0.58700
O479        O  0.69978212  0.41311642  0.12908162    -0.57100
O480        O  0.72094253  0.40448933  0.19947411    -0.57100
O481        O  0.69468040  0.37321600  0.16738601    -0.56300
O482        O  0.82032277  0.40214866  0.25202200    -0.57500
C483        C  0.87332249  0.39912231  0.28017061     0.75100
O484        O  0.81801978  0.43732509  0.30418079    -0.58600
C485        C  0.80175688  0.40314065  0.25560546     0.75100
C486        C  0.82633582  0.37684098  0.31911123     0.77500
Cd487      Cd  0.83150732  0.40638465  0.28758493     1.37500
O488        O  0.86010810  0.39320618  0.26760224    -0.57500
O489        O  0.82698225  0.37184415  0.30073513    -0.56300
C490        C  0.82946931  0.44925083  0.29508031     0.77500
O491        O  0.82686815  0.39548363  0.32283600    -0.58700
O492        O  0.86721480  0.40829690  0.29565108    -0.57100
O493        O  0.79702593  0.40485505  0.27386245    -0.57100
O494        O  0.84165673  0.44137338  0.28295990    -0.56300
O495        O  0.73791784  0.17752917  0.39981975    -0.57500
C496        C  0.71616847  0.12378887  0.40190215     0.75100
O497        O  0.68552727  0.17660690  0.44078078    -0.58600
C498        C  0.73613762  0.19515809  0.40680838     0.75100
C499        C  0.67384995  0.17210346  0.37992898     0.77500
Cd500      Cd  0.70472619  0.16519363  0.41044149     1.37500
O501        O  0.72918406  0.13718233  0.40571703    -0.57500
O502        O  0.69220963  0.17578376  0.37708001    -0.56300
C503        C  0.69566570  0.16645893  0.45314861     0.77500
O504        O  0.66945774  0.16634073  0.39735134    -0.58700
O505        O  0.69813921  0.12954777  0.40183341    -0.57100
O506        O  0.71953644  0.19927964  0.41482504    -0.57100
O507        O  0.70937244  0.15582391  0.44568091    -0.56300
O508        O  0.81882808  0.24955494  0.40067036    -0.57500
C509        C  0.87455355  0.27340443  0.40172843     0.75100
O510        O  0.82820130  0.31886786  0.39920591    -0.58600
C511        C  0.80104991  0.25359375  0.40566959     0.75100
C512        C  0.83340711  0.28996038  0.45259151     0.77500
Cd513      Cd  0.83315145  0.28336219  0.40945620     1.37500
O514        O  0.86143239  0.25970579  0.40306848    -0.57500
O515        O  0.84656212  0.27954377  0.44391636    -0.56300
C516        C  0.82752317  0.31537491  0.38047312     0.77500
O517        O  0.82076083  0.29849102  0.44133461    -0.58700
O518        O  0.86842062  0.29125020  0.40347406    -0.57100
O519        O  0.79801767  0.27145104  0.41145741    -0.57100
O520        O  0.82848570  0.29710045  0.37522025    -0.56300
O521        O  0.55608906  0.68205406  0.00298851    -0.57500
C522        C  0.61587611  0.67511122  0.00098679     0.75100
O523        O  0.59279387  0.73094905  0.97705756    -0.58600
C524        C  0.54380069  0.69592865  0.00693170     0.75100
C525        C  0.59330240  0.71763692  0.04278059     0.77500
Cd526      Cd  0.58521554  0.70442620  0.00248716     1.37500
O527        O  0.59750721  0.67041007  0.99972865    -0.57500
O528        O  0.58992118  0.69967180  0.03757765    -0.56300
C529        C  0.58538035  0.72054090  0.96264040     0.77500
O530        O  0.59284911  0.73066066  0.02901896    -0.58700
O531        O  0.62012484  0.69362681  0.00176673    -0.57100
O532        O  0.55082268  0.71349202  0.00910494    -0.57100
O533        O  0.57840822  0.70357087  0.96698935    -0.56300
O534        O  0.66916801  0.59467792  0.00284162    -0.57500
C535        C  0.70500120  0.53935141  0.00075560     0.75100
O536        O  0.72213116  0.59498436  0.97449132    -0.58600
C537        C  0.67504785  0.61283959  0.00423704     0.75100
C538        C  0.71082245  0.58258064  0.04484865     0.77500
Cd539      Cd  0.70264037  0.58146081  0.00292396     1.37500
O540        O  0.68815087  0.54819275  0.00119085    -0.57500
O541        O  0.69356821  0.57974184  0.03717799    -0.56300
C542        C  0.70911496  0.58889002  0.96152782     0.77500
O543        O  0.72510409  0.58634164  0.03281204    -0.58700
O544        O  0.72072118  0.55016203  0.00119357    -0.57100
O545        O  0.69377344  0.61615697  0.00552193    -0.57100
O546        O  0.69445717  0.57886988  0.96803843    -0.56300
O547        O  0.55669680  0.99226267  0.30670589    -0.57500
C548        C  0.61144850  0.99133706  0.32166475     0.75100
O549        O  0.60428249  0.97088281  0.26394373    -0.58600
C550        C  0.54490346  0.99793407  0.29292984     0.75100
C551        C  0.59577625  0.03596749  0.27447849     0.77500
Cd552      Cd  0.58685506  0.99550599  0.28672729     1.37500
O553        O  0.59305076  0.99555476  0.32300510    -0.57500
O554        O  0.59503965  0.03052279  0.29249692    -0.56300
C555        C  0.59170428  0.95697096  0.26696169     0.77500
O556        O  0.59315834  0.02234117  0.26121064    -0.58700
O557        O  0.61828190  0.98828783  0.30425445    -0.57100
O558        O  0.55254617  0.00243098  0.27626111    -0.57100
O559        O  0.57669472  0.96155160  0.27740272    -0.56300
O560        O  0.66832891  0.99777736  0.40247373    -0.57500
C561        C  0.70063829  0.00199812  0.45263690     0.75100
O562        O  0.72851044  0.97307008  0.39903232    -0.58600
C563        C  0.67060009  0.99270954  0.38426669     0.75100
C564        C  0.71764848  0.03888275  0.40031483     0.77500
Cd565      Cd  0.70402724  0.99909957  0.41033728     1.37500
O566        O  0.68528528  0.00273638  0.44133960    -0.57500
O567        O  0.69955577  0.03423282  0.40309903    -0.56300
C568        C  0.71988391  0.95948250  0.40903246     0.77500
O569        O  0.73030145  0.02476414  0.40139980    -0.58700
O570        O  0.71750407  0.00088856  0.44419686    -0.57100
O571        O  0.68833454  0.98994904  0.37827121    -0.57100
O572        O  0.70486262  0.96461670  0.41919182    -0.56300
O573        O  0.72815585  0.86123665  0.40115401    -0.57500
C574        C  0.73530945  0.80034243  0.40621184     0.75100
O575        O  0.68621568  0.82837964  0.44367924    -0.58600
C576        C  0.71930060  0.87455314  0.41142510     0.75100
C577        C  0.67549440  0.83078391  0.38377406     0.77500
Cd578      Cd  0.70754984  0.83294201  0.41356769     1.37500
O579        O  0.74114121  0.81800956  0.41004956    -0.57500
O580        O  0.69246013  0.83828173  0.38003743    -0.56300
C581        C  0.70082989  0.82824731  0.45600612     0.77500
O582        O  0.67321765  0.82382453  0.40119048    -0.58700
O583        O  0.71650952  0.79787868  0.40472643    -0.57100
O584        O  0.70538503  0.86859430  0.42262897    -0.57100
O585        O  0.71807664  0.83007174  0.44864987    -0.56300
O586        O  0.81261437  0.74145083  0.41072448    -0.57500
C587        C  0.86680526  0.71795766  0.40386303     0.75100
O588        O  0.81278330  0.68751709  0.43997342    -0.58600
C589        C  0.79481101  0.73707084  0.40554947     0.75100
C590        C  0.82356672  0.67257795  0.38278493     0.77500
Cd591      Cd  0.82556592  0.70672028  0.41059160     1.37500
O592        O  0.85315757  0.72265464  0.39148738    -0.57500
O593        O  0.82244136  0.69048255  0.37694562    -0.56300
C594        C  0.82183549  0.69837265  0.45297132     0.77500
O595        O  0.82481952  0.67028503  0.40159522    -0.58700
O596        O  0.86137077  0.70873167  0.41929693    -0.57100
O597        O  0.79134513  0.71872438  0.40212282    -0.57100
O598        O  0.83203234  0.71278651  0.44632352    -0.56300
O599        O  0.59945116  0.81647111  0.25853717    -0.57500
C600        C  0.58926591  0.87314976  0.27068822     0.75100
O601        O  0.55608446  0.83117346  0.31216190    -0.58600
C602        C  0.58897757  0.80070503  0.25952161     0.75100
C603        C  0.61427633  0.83157436  0.32096877     0.77500
Cd604      Cd  0.58457461  0.83382207  0.28809969     1.37500
O605        O  0.59955612  0.85842328  0.26455886    -0.57500
O606        O  0.60205337  0.81744677  0.31732895    -0.56300
C607        C  0.54257436  0.83454635  0.29913190     0.77500
O608        O  0.61272149  0.84643379  0.30954907    -0.58700
O609        O  0.57654452  0.86956849  0.28411636    -0.57100
O610        O  0.57689641  0.79994721  0.27393800    -0.57100
O611        O  0.54845044  0.83763411  0.28146282    -0.56300
O612        O  0.82275974  0.58209960  0.25549521    -0.57500
C613        C  0.87513673  0.58688288  0.28038677     0.75100
O614        O  0.83052791  0.59030599  0.32640904    -0.58600
C615        C  0.80437449  0.58427003  0.25925878     0.75100
C616        C  0.83080085  0.53590731  0.29705393     0.77500
Cd617      Cd  0.83400042  0.57899477  0.29067828     1.37500
O618        O  0.86123432  0.58799155  0.26737921    -0.57500
O619        O  0.84464576  0.54387410  0.28715044    -0.56300
C620        C  0.82900145  0.60879350  0.32266084     0.77500
O621        O  0.81827991  0.54787140  0.30474832    -0.58700
O622        O  0.87001330  0.58233188  0.29798264    -0.57100
O623        O  0.79967508  0.58512522  0.27758617    -0.57100
O624        O  0.82946559  0.61338727  0.30430833    -0.56300
O625        O  0.59672410  0.72862618  0.14145563    -0.57500
C626        C  0.59152033  0.73647763  0.19996466     0.75100
O627        O  0.55837826  0.68875347  0.18031468    -0.58600
C628        C  0.59632763  0.71517206  0.12786446     0.75100
C629        C  0.62008196  0.67471525  0.17752364     0.77500
Cd630      Cd  0.58998283  0.70523287  0.16932451     1.37500
O631        O  0.60152377  0.73771671  0.18398788    -0.57500
O632        O  0.62413687  0.69321957  0.17791091    -0.56300
C633        C  0.54724296  0.69890876  0.16878973     0.77500
O634        O  0.60183331  0.67020328  0.17436661    -0.58700
O635        O  0.58150504  0.72054640  0.20206561    -0.57100
O636        O  0.59367690  0.69735158  0.13353410    -0.57100
O637        O  0.55601723  0.71033008  0.15672591    -0.56300
O638        O  0.74214238  0.58135604  0.18184449    -0.57500
C639        C  0.71137088  0.57929684  0.13141702     0.75100
O640        O  0.68949861  0.54855887  0.19141376    -0.58600
C641        C  0.74016975  0.58185272  0.20070595     0.75100
C642        C  0.67829447  0.61021733  0.17965332     0.77500
Cd643      Cd  0.70603922  0.57731170  0.17413233     1.37500
O644        O  0.72577854  0.58319843  0.14341927    -0.57500
O645        O  0.69712145  0.61272517  0.17998853    -0.56300
C646        C  0.69682594  0.53559274  0.17955901     0.77500
O647        O  0.67225780  0.59230549  0.17780270    -0.58700
O648        O  0.69470637  0.57523018  0.13926729    -0.57100
O649        O  0.72249083  0.58071943  0.20728132    -0.57100
O650        O  0.70767410  0.54197627  0.16565721    -0.56300
O651        O  0.32913015  0.58640604  0.00301151    -0.57500
C652        C  0.29716189  0.53735277  0.00863057     0.75100
O653        O  0.26909566  0.58873035  0.03303020    -0.58600
C654        C  0.32694208  0.60514290  0.00142213     0.75100
C655        C  0.27682318  0.58288675  0.96557716     0.77500
Cd656      Cd  0.29347668  0.57944239  0.00569700     1.37500
O657        O  0.31238406  0.54846864  0.00653452    -0.57500
O658        O  0.29179033  0.57227867  0.97005033    -0.56300
C659        C  0.28266942  0.58903043  0.04659809     0.77500
O660        O  0.26841686  0.59203371  0.98007539    -0.58700
O661        O  0.28026438  0.54584189  0.00980118    -0.57100
O662        O  0.30921759  0.61187502  0.00162318    -0.57100
O663        O  0.30027968  0.58540058  0.04092330    -0.56300
O664        O  0.44725835  0.67826193  0.00349553    -0.57500
C665        C  0.38931190  0.66399578  0.99908816     0.75100
O666        O  0.40588696  0.72099167  0.03054241    -0.58600
C667        C  0.45821802  0.69351281  0.00680867     0.75100
C668        C  0.41284642  0.71392817  0.96363823     0.77500
Cd669      Cd  0.41607424  0.69684686  0.00314243     1.37500
O670        O  0.40804084  0.66122665  0.00026372    -0.57500
O671        O  0.42295253  0.69851794  0.96766782    -0.56300
C672        C  0.40753371  0.70783866  0.04409676     0.77500
O673        O  0.40387886  0.72233896  0.97821745    -0.58700
O674        O  0.38320402  0.68193156  0.99910607    -0.57100
O675        O  0.44957439  0.71029129  0.00868643    -0.57100
O676        O  0.41268830  0.69052337  0.03839144    -0.56300
O677        O  0.00134948  0.55247891  0.30505989    -0.57500
C678        C  0.99703085  0.61437315  0.31726485     0.75100
O679        O  0.02780129  0.59442356  0.26328996    -0.58600
C680        C  0.00010802  0.54148129  0.28942083     0.75100
C681        C  0.95978354  0.59004834  0.27488696     0.77500
Cd682      Cd  0.00044984  0.58408588  0.28700758     1.37500
O683        O  0.00130282  0.59645911  0.32180564    -0.57500
O684        O  0.96520302  0.58376331  0.29190444    -0.56300
C685        C  0.04129887  0.59234100  0.27677371     0.77500
O686        O  0.97348413  0.59316208  0.26208839    -0.58700
O687        O  0.99468075  0.61787705  0.29877366    -0.57100
O688        O  0.99923424  0.55018734  0.27266314    -0.57100
O689        O  0.03559271  0.58660268  0.29375630    -0.56300
O690        O  0.99093961  0.68854594  0.44114847    -0.57500
C691        C  0.99221633  0.67622685  0.37893674     0.75100
O692        O  0.96578959  0.73117286  0.39934584    -0.58600
C693        C  0.98901786  0.70428515  0.45181293     0.75100
C694        C  0.03283146  0.71919462  0.40471436     0.77500
Cd695      Cd  0.99203063  0.70656651  0.40939450     1.37500
O696        O  0.99576419  0.67212465  0.39716560    -0.57500
O697        O  0.02753251  0.70257859  0.41178844    -0.56300
C698        C  0.95176629  0.71848269  0.40198624     0.77500
O699        O  0.01892205  0.73139345  0.40018253    -0.58700
O700        O  0.98845912  0.69436475  0.37515059    -0.57100
O701        O  0.98834195  0.72079819  0.44267453    -0.57100
O702        O  0.95671300  0.70126331  0.40792895    -0.56300
O703        O  0.26962724  0.59367031  0.14543924    -0.57500
C704        C  0.26168899  0.59139916  0.20639826     0.75100
O705        O  0.30640736  0.55104082  0.18392521    -0.58600
C706        C  0.28308272  0.59034464  0.13255270     0.75100
C707        C  0.32440422  0.61234457  0.18095033     0.77500
Cd708      Cd  0.29099963  0.58418785  0.17495141     1.37500
O709        O  0.25854319  0.59634920  0.18836973    -0.57500
O710        O  0.30662277  0.61801700  0.17768870    -0.56300
C711        C  0.29335227  0.54043952  0.17470031     0.77500
O712        O  0.32679624  0.59357282  0.18234058    -0.58700
O713        O  0.27881726  0.58425321  0.21023325    -0.57100
O714        O  0.29985812  0.58451364  0.13923691    -0.57100
O715        O  0.27954533  0.54994127  0.16592936    -0.56300
O716        O  0.18233094  0.59549221  0.26392855    -0.57500
C717        C  0.12646619  0.59074449  0.28293798     0.75100
O718        O  0.16571945  0.55139776  0.31437583    -0.58600
C719        C  0.20034975  0.59080995  0.26780906     0.75100
C720        C  0.17300959  0.61542830  0.32674861     0.77500
Cd721      Cd  0.16794162  0.58424210  0.29556543     1.37500
O722        O  0.14051121  0.59201111  0.27042914    -0.57500
O723        O  0.17583348  0.61844378  0.30829444    -0.56300
C724        C  0.16896617  0.54035886  0.29913675     0.77500
O725        O  0.16969449  0.59737635  0.33126382    -0.58700
O726        O  0.13158826  0.58630945  0.30059037    -0.57100
O727        O  0.20386196  0.58422721  0.28528865    -0.57100
O728        O  0.17302399  0.54963712  0.28332669    -0.56300
O729        O  0.40766024  0.73797668  0.18616098    -0.57500
C730        C  0.40978497  0.71010434  0.13016970     0.75100
O731        O  0.44965852  0.68803963  0.18213196    -0.58600
C732        C  0.41289448  0.73472159  0.20415114     0.75100
C733        C  0.38748713  0.67297299  0.17961267     0.77500
Cd734      Cd  0.41711241  0.70432014  0.17264837     1.37500
O735        O  0.40829532  0.72463233  0.14253636    -0.57500
O736        O  0.38259087  0.69097909  0.17645589    -0.56300
C737        C  0.46041025  0.70006457  0.17232115     0.77500
O738        O  0.40613752  0.66955959  0.18049289    -0.58700
O739        O  0.41443502  0.69334211  0.13748600    -0.57100
O740        O  0.41926737  0.71729123  0.20767640    -0.57100
O741        O  0.45107515  0.71321623  0.16255583    -0.56300
O742        O  0.40642816  0.85887172  0.27288430    -0.57500
C743        C  0.41081613  0.79787745  0.26540641     0.75100
O744        O  0.44491204  0.82373937  0.31541150    -0.58600
C745        C  0.40667469  0.87198867  0.28681776     0.75100
C746        C  0.38368146  0.82225506  0.32665459     0.77500
Cd747      Cd  0.41333658  0.83003530  0.29554851     1.37500
O748        O  0.40361742  0.81506221  0.26213567    -0.57500
O749        O  0.37860421  0.82598224  0.30871659    -0.56300
C750        C  0.45640676  0.83242487  0.30324493     0.77500
O751        O  0.40235491  0.82127620  0.33001609    -0.58700
O752        O  0.41818802  0.79537810  0.28274624    -0.57100
O753        O  0.40910943  0.86562558  0.30446098    -0.57100
O754        O  0.44799082  0.83988397  0.28803762    -0.56300
O755        O  0.17515107  0.74545032  0.41006576    -0.57500
C756        C  0.11830174  0.72086298  0.40738096     0.75100
O757        O  0.16226182  0.67668063  0.40440063    -0.58600
C758        C  0.19317620  0.73981458  0.41218764     0.75100
C759        C  0.16066633  0.70766038  0.45926639     0.77500
Cd760      Cd  0.15995503  0.71219402  0.41602756     1.37500
O761        O  0.13164041  0.73380513  0.40365935    -0.57500
O762        O  0.15605968  0.72382286  0.45078496    -0.56300
C763        C  0.16688315  0.68035150  0.38640495     0.77500
O764        O  0.16541531  0.69322033  0.44773776    -0.58700
O765        O  0.12429387  0.70467261  0.41489355    -0.57100
O766        O  0.19571992  0.72137438  0.41547740    -0.57100
O767        O  0.16887963  0.69868485  0.38235884    -0.56300
O768        O  0.25507857  0.81525674  0.41084320    -0.57500
C769        C  0.28126425  0.86886314  0.41052934     0.75100
O770        O  0.30823832  0.82779205  0.44981216    -0.58600
C771        C  0.25909233  0.79673967  0.41013465     0.75100
C772        C  0.32184462  0.81964604  0.38755558     0.77500
Cd773      Cd  0.28982097  0.82671203  0.41638446     1.37500
O774        O  0.27269376  0.85545532  0.39986708    -0.57500
O775        O  0.30469888  0.82584977  0.38246382    -0.56300
C776        C  0.29287865  0.82369526  0.46011435     0.77500
O777        O  0.32418768  0.81560333  0.40598632    -0.58700
O778        O  0.29317344  0.86282655  0.42400533    -0.57100
O779        O  0.27749230  0.79211264  0.41085394    -0.57100
O780        O  0.27700527  0.82016838  0.45021229    -0.56300
O781        O  0.31216778  0.44043758  0.00472883    -0.57500
C782        C  0.32651931  0.38492994  0.99761056     0.75100
O783        O  0.26771121  0.40997783  0.02935394    -0.58600
C784        C  0.29693369  0.45159830  0.00636455     0.75100
C785        C  0.27739794  0.40738736  0.96069571     0.77500
Cd786      Cd  0.29246406  0.40969097  0.00115592     1.37500
O787        O  0.32831941  0.40337195  0.00218729    -0.57500
O788        O  0.29197262  0.41820694  0.96641491    -0.56300
C789        C  0.28012285  0.40208497  0.04140198     0.77500
O790        O  0.26879682  0.39705847  0.97404101    -0.58700
O791        O  0.30898068  0.37813011  0.99437323    -0.57100
O792        O  0.27989301  0.44322915  0.00596325    -0.57100
O793        O  0.29573707  0.39473554  0.03381687    -0.56300
O794        O  0.40843604  0.33076391  0.00025547    -0.57500
C795        C  0.45983683  0.29994197  0.00077819     0.75100
O796        O  0.40927138  0.26802483  0.02217763    -0.58600
C797        C  0.39026161  0.32785554  0.99531216     0.75100
C798        C  0.41304705  0.28014937  0.95747648     0.77500
Cd799      Cd  0.41750198  0.29534691  0.99773212     1.37500
O800        O  0.44861249  0.31504528  0.99880439    -0.57500
O801        O  0.42355731  0.29529140  0.96220966    -0.56300
C802        C  0.40762917  0.28031869  0.03678314     0.77500
O803        O  0.40458696  0.27099684  0.97169862    -0.58700
O804        O  0.45143834  0.28293637  0.00153488    -0.57100
O805        O  0.38494607  0.31006452  0.99103646    -0.57100
O806        O  0.41028558  0.29859776  0.03296283    -0.56300
O807        O  0.31354690  0.99588370  0.44554902    -0.57500
C808        C  0.32744241  0.00029474  0.38570715     0.75100
O809        O  0.27038134  0.96826519  0.40498507    -0.58600
C810        C  0.29821262  0.99111297  0.45546191     0.75100
C811        C  0.28097049  0.03546063  0.41114092     0.77500
Cd812      Cd  0.29591223  0.99506468  0.41322824     1.37500
O813        O  0.33144056  0.99531386  0.40364491    -0.57500
O814        O  0.29510061  0.03002266  0.42257096    -0.56300
C815        C  0.28336667  0.95435360  0.40450382     0.77500
O816        O  0.27214020  0.02163673  0.40100532    -0.58700
O817        O  0.30922997  0.00315843  0.38125329    -0.57100
O818        O  0.28216411  0.98793779  0.44554570    -0.57100
O819        O  0.30152631  0.95962456  0.40620211    -0.56300
O820        O  0.40611396  0.00001846  0.32985670    -0.57500
C821        C  0.45961136  0.00109010  0.29827018     0.75100
O822        O  0.40860146  0.97086792  0.27170990    -0.58600
C823        C  0.38804415  0.00344687  0.32504035     0.75100
C824        C  0.40944658  0.03912420  0.28154882     0.77500
Cd825      Cd  0.41743509  0.99961663  0.29525774     1.37500
O826        O  0.44903336  0.00086314  0.31393483    -0.57500
O827        O  0.41697743  0.03528561  0.29855049    -0.56300
C828        C  0.40997799  0.95793042  0.28551990     0.77500
O829        O  0.40614349  0.02436057  0.26959217    -0.58700
O830        O  0.45063626  0.00087951  0.28142798    -0.57100
O831        O  0.38412569  0.00527009  0.30649319    -0.57100
O832        O  0.41468539  0.96442317  0.30283293    -0.56300
O833        O  0.99578062  0.30537735  0.44885399    -0.57500
C834        C  0.99926505  0.32735169  0.39040652     0.75100
O835        O  0.02724820  0.27006588  0.40462954    -0.58600
C836        C  0.99582331  0.28825706  0.45693859     0.75100
C837        C  0.95925858  0.27688519  0.40373133     0.77500
Cd838      Cd  0.99825756  0.29227005  0.41444340     1.37500
O839        O  0.99609760  0.32868331  0.40911826    -0.57500
O840        O  0.96228465  0.29374257  0.41210570    -0.56300
C841        C  0.04018491  0.28256191  0.41147959     0.77500
O842        O  0.97461993  0.26649323  0.39943984    -0.58700
O843        O  0.00124422  0.30987919  0.38297624    -0.57100
O844        O  0.99660484  0.27320070  0.44527427    -0.57100
O845        O  0.03343961  0.29882048  0.41850405    -0.56300
O846        O  0.99757074  0.40716453  0.33238145    -0.57500
C847        C  0.99734258  0.45535526  0.29452581     0.75100
O848        O  0.02193325  0.39804915  0.27026543    -0.58600
C849        C  0.00105532  0.38853810  0.33102782     0.75100
C850        C  0.95826690  0.40063973  0.28342561     0.77500
Cd851      Cd  0.99814791  0.41229812  0.29575518     1.37500
O852        O  0.00067004  0.44619490  0.31071981    -0.57500
O853        O  0.96284057  0.40670015  0.30092986    -0.56300
C854        C  0.03713806  0.40531785  0.27945248     0.77500
O855        O  0.97241472  0.39962472  0.27086110    -0.58700
O856        O  0.99376534  0.44464694  0.27905964    -0.57100
O857        O  0.00342890  0.38127993  0.31355981    -0.57100
O858        O  0.03398271  0.41507795  0.29546255    -0.56300
O859        O  0.40569053  0.26515904  0.13474114    -0.57500
C860        C  0.40643738  0.25864022  0.19452357     0.75100
O861        O  0.44274740  0.30667152  0.17405380    -0.58600
C862        C  0.40461550  0.27874796  0.12169569     0.75100
C863        C  0.38143032  0.32102716  0.17115434     0.77500
Cd864      Cd  0.41086894  0.28900851  0.16368471     1.37500
O865        O  0.39614134  0.25790578  0.17846492    -0.57500
O866        O  0.37644100  0.30298125  0.16790262    -0.56300
C867        C  0.45412839  0.29609762  0.16311632     0.77500
O868        O  0.40014671  0.32443374  0.17157612    -0.58700
O869        O  0.41808560  0.27352312  0.19659562    -0.57100
O870        O  0.40602708  0.29661557  0.12814443    -0.57100
O871        O  0.44555560  0.28291227  0.15221841    -0.56300
O872        O  0.39768157  0.18043034  0.25303497    -0.57500
C873        C  0.40555530  0.12432462  0.27858987     0.75100
O874        O  0.44293177  0.17716200  0.30193397    -0.58600
C875        C  0.40474522  0.19789800  0.25588369     0.75100
C876        C  0.38238290  0.17253971  0.31851385     0.77500
Cd877      Cd  0.41053473  0.16689910  0.28560206     1.37500
O878        O  0.40193718  0.13655505  0.26462868    -0.57500
O879        O  0.37667731  0.16889090  0.30064605    -0.56300
C880        C  0.45387809  0.16764437  0.28968222     0.77500
O881        O  0.40111260  0.17452746  0.32115289    -0.58700
O882        O  0.41123847  0.13179075  0.29525260    -0.57100
O883        O  0.41317103  0.20130611  0.27267510    -0.57100
O884        O  0.44486725  0.15814755  0.27569918    -0.56300
O885        O  0.25232386  0.39589700  0.18348511    -0.57500
C886        C  0.27886435  0.40486024  0.12825813     0.75100
O887        O  0.30151086  0.44180703  0.18216620    -0.58600
C888        C  0.25420870  0.40292873  0.20115669     0.75100
C889        C  0.31810043  0.38120304  0.17638556     0.77500
Cd890      Cd  0.28491035  0.40959177  0.17107664     1.37500
O891        O  0.26405914  0.40879065  0.13939096    -0.57500
O892        O  0.30009117  0.37546832  0.17380511    -0.56300
C893        C  0.29046490  0.45314659  0.17171372     0.77500
O894        O  0.32066333  0.39998695  0.17800432    -0.58700
O895        O  0.29526702  0.40158929  0.13719546    -0.57100
O896        O  0.27045464  0.41209903  0.20504777    -0.57100
O897        O  0.27744044  0.44435943  0.16083775    -0.56300
O898        O  0.13481091  0.39312923  0.27232433    -0.57500
C899        C  0.19317945  0.40189703  0.26284932     0.75100
O900        O  0.15802257  0.44206942  0.31071498    -0.58600
C901        C  0.12141301  0.40466780  0.27909201     0.75100
C902        C  0.16715821  0.38232267  0.32705340     0.77500
Cd903      Cd  0.16253412  0.40904745  0.29270945     1.37500
O904        O  0.17505723  0.39677229  0.25989294    -0.57500
O905        O  0.15875602  0.37705870  0.31074748    -0.56300
C906        C  0.16487999  0.45272815  0.29675529     0.77500
O907        O  0.17425806  0.39994359  0.32760146    -0.58700
O908        O  0.19734766  0.40892408  0.28012169    -0.57100
O909        O  0.12714548  0.41789204  0.29166212    -0.57100
O910        O  0.17098584  0.44318507  0.28149517    -0.56300
O911        O  0.27040672  0.13345791  0.39714610    -0.57500
C912        C  0.25910037  0.19478869  0.40346144     0.75100
O913        O  0.30702553  0.17113248  0.44187123    -0.58600
C914        C  0.28212576  0.12135432  0.40580598     0.75100
C915        C  0.32165640  0.17117593  0.38054021     0.77500
Cd916      Cd  0.28932981  0.16415901  0.40906172     1.37500
O917        O  0.25598966  0.17675315  0.39804281    -0.57500
O918        O  0.30399879  0.16667001  0.37500190    -0.56300
C919        C  0.29210063  0.16696358  0.45275641     0.77500
O920        O  0.32441335  0.17316363  0.39931375    -0.58700
O921        O  0.27643157  0.19880303  0.41031425    -0.57100
O922        O  0.29724366  0.12898094  0.41464372    -0.57100
O923        O  0.27629497  0.16170655  0.44347199    -0.56300
O924        O  0.18064746  0.25495081  0.40194773    -0.57500
C925        C  0.12666229  0.28131485  0.41127986     0.75100
O926        O  0.18011920  0.30189120  0.44905782    -0.58600
C927        C  0.19894179  0.25728375  0.40663709     0.75100
C928        C  0.17239112  0.32140159  0.38812987     0.77500
Cd929      Cd  0.16918963  0.28776630  0.41538472     1.37500
O930        O  0.13867251  0.26775312  0.40559915    -0.57500
O931        O  0.16788487  0.30382925  0.38229454    -0.56300
C932        C  0.17066706  0.28909179  0.45927152     0.77500
O933        O  0.17706951  0.32351825  0.40653255    -0.58700
O934        O  0.13444420  0.29752588  0.41769125    -0.57100
O935        O  0.20374503  0.27415510  0.41420822    -0.57100
O936        O  0.16076787  0.27617277  0.44927020    -0.56300
C937        C  0.24715158  0.22931209  0.39456695    -0.01500
C938        C  0.24315557  0.21026625  0.40263200     0.08200
C939        C  0.22426842  0.20651899  0.41122339    -0.01600
C940        C  0.20966943  0.22172848  0.41201232    -0.01600
C941        C  0.21379628  0.24089460  0.40425319     0.08300
C942        C  0.23254891  0.24454090  0.39537788    -0.01800
Br943      Br  0.23813409  0.27027570  0.38376907    -0.00400
Br944      Br  0.27249796  0.23447282  0.38189936    -0.00500
Br945      Br  0.18463047  0.21663943  0.42537652    -0.00400
Br946      Br  0.21883138  0.18109226  0.42363131    -0.00400
C947        C  0.15103395  0.35789403  0.35034562    -0.01500
C948        C  0.16835081  0.36841746  0.34434635     0.08200
C949        C  0.18679422  0.36471960  0.35424853    -0.01600
C950        C  0.18809733  0.34987834  0.36916030    -0.01600
C951        C  0.17104172  0.33851969  0.37414842     0.08300
C952        C  0.15241531  0.34296607  0.36505361    -0.01800
Br953      Br  0.12853973  0.32887317  0.37320976    -0.00400
Br954      Br  0.12509165  0.36444459  0.33909003    -0.00500
Br955      Br  0.21348672  0.34428585  0.38191751    -0.00400
Br956      Br  0.21062799  0.37895728  0.34648420    -0.00400
C957        C  0.21836447  0.40691909  0.21195716    -0.01500
C958        C  0.23824095  0.40110135  0.21649143     0.08200
C959        C  0.24304212  0.39487696  0.23611669    -0.01600
C960        C  0.22824905  0.39451387  0.25109295    -0.01600
C961        C  0.20840318  0.40056917  0.24665935     0.08300
C962        C  0.20356302  0.40668883  0.22694556    -0.01800
Br963      Br  0.17707048  0.41665754  0.22058163    -0.00400
Br964      Br  0.21171799  0.41709365  0.18571569    -0.00500
Br965      Br  0.23525246  0.38518795  0.27755760    -0.00400
Br966      Br  0.26997970  0.38644500  0.24257982    -0.00400
C967        C  0.34991959  0.18491205  0.33310263    -0.01500
C968        C  0.36783063  0.17391525  0.33534942     0.08200
C969        C  0.37122336  0.16338053  0.35335034    -0.01600
C970        C  0.35657716  0.16328978  0.36853166    -0.01600
C971        C  0.33817994  0.17339172  0.36577024     0.08300
C972        C  0.33516709  0.18457838  0.34813941    -0.01800
Br973      Br  0.31111512  0.20023161  0.34484292    -0.00400
Br974      Br  0.34581801  0.20119253  0.30968687    -0.00500
Br975      Br  0.36139130  0.14808876  0.39256436    -0.00400
Br976      Br  0.39520734  0.14759643  0.35673599    -0.00400
C977        C  0.34933380  0.33416187  0.18627601    -0.01500
C978        C  0.36614323  0.33723332  0.17389080     0.08200
C979        C  0.36767214  0.35544747  0.16341837    -0.01600
C980        C  0.35231338  0.36998804  0.16467397    -0.01600
C981        C  0.33518850  0.36663564  0.17658848     0.08300
C982        C  0.33403601  0.34874763  0.18762042    -0.01800
Br983      Br  0.31182351  0.34443845  0.20539002    -0.00400
Br984      Br  0.34759308  0.31029039  0.20220723    -0.00500
Br985      Br  0.35419331  0.39381825  0.14866855    -0.00400
Br986      Br  0.39017171  0.36012732  0.14605447    -0.00400
C987        C  0.42319802  0.23255608  0.21542650    -0.01500
C988        C  0.40551808  0.24272645  0.20987043     0.08200
C989        C  0.38730858  0.23787034  0.21931950    -0.01600
C990        C  0.38691743  0.22325630  0.23447761    -0.01600
C991        C  0.40462844  0.21318260  0.23997527     0.08300
C992        C  0.42273695  0.21788940  0.23040342    -0.01800
Br993      Br  0.44698083  0.20389134  0.23766749    -0.00400
Br994      Br  0.44801374  0.23797757  0.20185038    -0.00500
Br995      Br  0.36246798  0.21784474  0.24859531    -0.00400
Br996      Br  0.36309500  0.25187721  0.21218975    -0.00400
C997        C  0.06814653  0.38502292  0.27443418    -0.01500
C998        C  0.05785553  0.40327325  0.27235386     0.08200
C999        C  0.06858390  0.42084524  0.26807566    -0.01600
C1000       C  0.08960106  0.42072671  0.26826147    -0.01600
C1001       C  0.10003625  0.40309225  0.27310473     0.08300
C1002       C  0.08931228  0.38490684  0.27493988    -0.01800
Br1003     Br  0.10327302  0.36027145  0.28031913    -0.00400
Br1004     Br  0.05321675  0.36064806  0.27843542    -0.00500
Br1005     Br  0.10408104  0.44496632  0.26241782    -0.00400
Br1006     Br  0.05433699  0.44543799  0.26316085    -0.00400
C1007       C  0.07242434  0.27198400  0.39466910    -0.01500
C1008       C  0.06217345  0.27893191  0.41186427     0.08200
C1009       C  0.07336051  0.28455720  0.42924477    -0.01600
C1010       C  0.09437657  0.28396238  0.42919987    -0.01600
C1011       C  0.10463301  0.27853998  0.41159586     0.08300
C1012       C  0.09364014  0.27201354  0.39445818    -0.01800
Br1013     Br  0.10750925  0.26477350  0.37017820    -0.00400
Br1014     Br  0.05761935  0.26412120  0.37077901    -0.00500
Br1015     Br  0.10918042  0.29035705  0.45367427    -0.00400
Br1016     Br  0.06023428  0.29354718  0.45344248    -0.00400
C1017       C  0.01846271  0.36243650  0.35094111    -0.01500
C1018       C  0.00210405  0.37552367  0.34872076     0.08200
C1019       C  0.98605000  0.37466209  0.36230339    -0.01600
C1020       C  0.98557371  0.35955793  0.37687408    -0.01600
C1021       C  0.00099601  0.34516488  0.37763648     0.08300
C1022       C  0.01785507  0.34720440  0.36524650    -0.01800
Br1023     Br  0.04047633  0.32946151  0.36824079    -0.00400
Br1024     Br  0.04206085  0.36583981  0.33479888    -0.00500
Br1025     Br  0.96317178  0.35793144  0.39485359    -0.00400
Br1026     Br  0.96399734  0.39318098  0.36012486    -0.00400
C1027       C  0.39149180  0.07069286  0.28942695    -0.01500
C1028       C  0.40468900  0.06011299  0.27678286     0.08200
C1029       C  0.41603129  0.07057380  0.26261825    -0.01600
C1030       C  0.41526691  0.09170305  0.26211622    -0.01600
C1031       C  0.40338507  0.10236007  0.27602573     0.08300
C1032       C  0.39105113  0.09174527  0.28926939    -0.01800
Br1033     Br  0.37400444  0.10608197  0.30776593    -0.00400
Br1034     Br  0.37436129  0.05624764  0.30744720    -0.00500
Br1035     Br  0.43213670  0.10602500  0.24386735    -0.00400
Br1036     Br  0.43407945  0.05605289  0.24537875    -0.00400
C1037       C  0.27672380  0.06934335  0.42701341    -0.01500
C1038       C  0.27629955  0.05717027  0.40947528     0.08200
C1039       C  0.27523123  0.06641886  0.39051045    -0.01600
C1040       C  0.27597762  0.08755437  0.38916708    -0.01600
C1041       C  0.27821673  0.09949118  0.40671969     0.08300
C1042       C  0.27799682  0.09030991  0.42563669    -0.01800
Br1043     Br  0.27970618  0.10651885  0.44992523    -0.00400
Br1044     Br  0.27566350  0.05740621  0.45320417    -0.00500
Br1045     Br  0.27584111  0.09998786  0.36321028    -0.00400
Br1046     Br  0.27485765  0.05031740  0.36620595    -0.00400
C1047       C  0.33906269  0.99382112  0.35100342    -0.01500
C1048       C  0.34300136  0.00197800  0.37031409     0.08200
C1049       C  0.36123268  0.01211813  0.37426850    -0.01600
C1050       C  0.37585593  0.01322574  0.35924818    -0.01600
C1051       C  0.37202785  0.00452564  0.34007642     0.08300
C1052       C  0.35307999  0.99595192  0.33572617    -0.01800
Br1053     Br  0.34553251  0.98692490  0.30891179    -0.00400
Br1054     Br  0.31517036  0.97808969  0.34559843    -0.00500
Br1055     Br  0.40029152  0.02819062  0.36443733    -0.00400
Br1056     Br  0.36598422  0.02538352  0.39985618    -0.00400
C1057       C  0.41643303  0.26212090  0.06841156    -0.01500
C1058       C  0.40315449  0.27445631  0.05759838     0.08200
C1059       C  0.38783064  0.28465878  0.06786641    -0.01600
C1060       C  0.38734401  0.28468003  0.08894550    -0.01600
C1061       C  0.40216683  0.27441544  0.09992798     0.08300
C1062       C  0.41599129  0.26214912  0.08961128    -0.01800
Br1063     Br  0.43568859  0.24702535  0.10436828    -0.00400
Br1064     Br  0.43635630  0.24665985  0.05436942    -0.00500
Br1065     Br  0.36651118  0.29909655  0.10282631    -0.00400
Br1066     Br  0.36770275  0.29905429  0.05291702    -0.00400
C1067       C  0.26175474  0.39586232  0.07378395    -0.01500
C1068       C  0.27835909  0.40353857  0.06348537     0.08200
C1069       C  0.29413843  0.41291147  0.07438813    -0.01600
C1070       C  0.29381654  0.41381888  0.09542209    -0.01600
C1071       C  0.27779921  0.40504476  0.10596529     0.08300
C1072       C  0.26149108  0.39650526  0.09502358    -0.01800
Br1073     Br  0.23924565  0.38470822  0.10888354    -0.00400
Br1074     Br  0.23996244  0.38363638  0.05879729    -0.00500
Br1075     Br  0.31514231  0.42820768  0.10947775    -0.00400
Br1076     Br  0.31616849  0.42542103  0.06049045    -0.00400
C1077       C  0.34859471  0.36189876  0.97832728    -0.01500
C1078       C  0.34400413  0.37175769  0.99650641     0.08200
C1079       C  0.35559260  0.36831020  0.01390304    -0.01600
C1080       C  0.37155330  0.35468443  0.01321270    -0.01600
C1081       C  0.37562767  0.34419581  0.99522316     0.08300
C1082       C  0.36443284  0.34812195  0.97767602    -0.01800
Br1083     Br  0.37118886  0.33508712  0.95263017    -0.00400
Br1084     Br  0.33327328  0.36740884  0.95430732    -0.00500
Br1085     Br  0.38694418  0.34948528  0.03728746    -0.00400
Br1086     Br  0.34847686  0.38082246  0.03912517    -0.00400
C1087       C  0.27096592  0.90274343  0.42314699    -0.01500
C1088       C  0.27805610  0.89054033  0.40734878     0.08200
C1089       C  0.28394201  0.89944059  0.38926455    -0.01600
C1090       C  0.28397887  0.92049696  0.38757120    -0.01600
C1091       C  0.27811073  0.93275533  0.40387476     0.08300
C1092       C  0.27096887  0.92375059  0.42143219    -0.01800
Br1093     Br  0.26285754  0.94021746  0.44393239    -0.00400
Br1094     Br  0.26163170  0.89068101  0.44739454    -0.00500
Br1095     Br  0.29257241  0.93259983  0.36310147    -0.00400
Br1096     Br  0.29377029  0.88292686  0.36750321    -0.00400
C1097       C  0.22653742  0.75267308  0.42498616    -0.01500
C1098       C  0.21035870  0.75405588  0.41113100     0.08200
C1099       C  0.21070979  0.76917443  0.39647978    -0.01600
C1100       C  0.22693724  0.78274723  0.39574172    -0.01600
C1101       C  0.24300471  0.78134278  0.40957963     0.08300
C1102       C  0.24286478  0.76608209  0.42402367    -0.01800
Br1103     Br  0.26446542  0.76421367  0.44352314    -0.00400
Br1104     Br  0.22574045  0.73368324  0.44661705    -0.00500
Br1105     Br  0.22759212  0.80277252  0.37512540    -0.00400
Br1106     Br  0.18931804  0.77118871  0.37684419    -0.00400
C1107       C  0.37138194  0.82984582  0.36166018    -0.01500
C1108       C  0.36858268  0.81989779  0.34290521     0.08200
C1109       C  0.35081797  0.80863760  0.33951155    -0.01600
C1110       C  0.33579373  0.80798714  0.35430950    -0.01600
C1111       C  0.33843608  0.81835270  0.37279729     0.08300
C1112       C  0.35638221  0.82911327  0.37642685    -0.01800
Br1113     Br  0.35965070  0.84460452  0.40097887    -0.00400
Br1114     Br  0.39504533  0.84594927  0.36685450    -0.00500
Br1115     Br  0.31163835  0.79259561  0.34933359    -0.00400
Br1116     Br  0.34724835  0.79335464  0.31488207    -0.00400
C1117       C  0.39084882  0.90519685  0.29379680    -0.01500
C1118       C  0.40490621  0.89376063  0.28302209     0.08200
C1119       C  0.41890557  0.90358405  0.27076806    -0.01600
C1120       C  0.41942018  0.92473719  0.27011576    -0.01600
C1121       C  0.40645818  0.93615799  0.28228367     0.08300
C1122       C  0.39205161  0.92625665  0.29397894    -0.01800
Br1123     Br  0.37456846  0.94145117  0.31123617    -0.00400
Br1124     Br  0.36978011  0.89193637  0.30823502    -0.00500
Br1125     Br  0.43935136  0.93803279  0.25426953    -0.00400
Br1126     Br  0.43881019  0.88822849  0.25656019    -0.00400
C1127       C  0.39474107  0.76243324  0.22248460    -0.01500
C1128       C  0.41206047  0.75055423  0.22012757     0.08200
C1129       C  0.42886795  0.75423706  0.23278952    -0.01600
C1130       C  0.42862709  0.77010100  0.24701619    -0.01600
C1131       C  0.41111672  0.78165724  0.24976189     0.08300
C1132       C  0.39413226  0.77762844  0.23745884    -0.01800
Br1133     Br  0.36955189  0.79217940  0.24164202    -0.00400
Br1134     Br  0.37132481  0.75726208  0.20588758    -0.00500
Br1135     Br  0.45310019  0.77706048  0.26136952    -0.00400
Br1136     Br  0.45276949  0.73814429  0.23029605    -0.00400
C1137       C  0.17368576  0.50656284  0.31592886    -0.01500
C1138       C  0.16749735  0.51790893  0.29917568     0.08200
C1139       C  0.15981748  0.50759825  0.28198138    -0.01600
C1140       C  0.15959474  0.48646987  0.28103914    -0.01600
C1141       C  0.16552611  0.47513417  0.29784451     0.08300
C1142       C  0.17218479  0.48536866  0.31545016    -0.01800
Br1143     Br  0.18035632  0.47038753  0.33871754    -0.00400
Br1144     Br  0.18542763  0.51970515  0.33924254    -0.00500
Br1145     Br  0.15046208  0.47331223  0.25653048    -0.00400
Br1146     Br  0.14790284  0.52214786  0.25996087    -0.00400
C1147       C  0.16411725  0.65105301  0.33661071    -0.01500
C1148       C  0.17263576  0.63237739  0.34180779     0.08200
C1149       C  0.17994062  0.62987233  0.36166141    -0.01600
C1150       C  0.17826898  0.64553273  0.37609510    -0.01600
C1151       C  0.16943049  0.66402820  0.37097219     0.08300
C1152       C  0.16257554  0.66673126  0.35098336    -0.01800
Br1153     Br  0.14979659  0.69146750  0.34319154    -0.00400
Br1154     Br  0.15316952  0.65533654  0.30998586    -0.00500
Br1155     Br  0.18911395  0.64164344  0.40279249    -0.00400
Br1156     Br  0.19330027  0.60541068  0.36904431    -0.00400
C1157       C  0.29480730  0.50698187  0.19181382    -0.01500
C1158       C  0.29395763  0.51812287  0.17398018     0.08200
C1159       C  0.29238552  0.50785826  0.15534992    -0.01600
C1160       C  0.29125280  0.48672540  0.15454812    -0.01600
C1161       C  0.29223816  0.47548504  0.17240709     0.08300
C1162       C  0.29393413  0.48581282  0.19104980    -0.01800
Br1163     Br  0.29302636  0.47117882  0.21582819    -0.00400
Br1164     Br  0.29566076  0.52073152  0.21748765    -0.00500
Br1165     Br  0.28849304  0.47346279  0.12870386    -0.00400
Br1166     Br  0.29264153  0.52278444  0.13069033    -0.00400
C1167       C  0.22680951  0.58401904  0.21787090    -0.01500
C1168       C  0.24579495  0.59270630  0.22188709     0.08200
C1169       C  0.24975731  0.60127775  0.24105805    -0.01600
C1170       C  0.23499930  0.60082544  0.25615025    -0.01600
C1171       C  0.21608537  0.59190876  0.25214567     0.08300
C1172       C  0.21215572  0.58346356  0.23291809    -0.01800
Br1173     Br  0.18726259  0.56933112  0.22751742    -0.00400
Br1174     Br  0.22109973  0.57150404  0.19207914    -0.00500
Br1175     Br  0.24060778  0.61292535  0.28209843    -0.00400
Br1176     Br  0.27507347  0.61454122  0.24636120    -0.00400
C1177       C  0.33948054  0.64507988  0.19340319    -0.01500
C1178       C  0.34145177  0.62693984  0.18235563     0.08200
C1179       C  0.35924088  0.62352558  0.17150156    -0.01600
C1180       C  0.37433451  0.63841532  0.17084104    -0.01600
C1181       C  0.37212467  0.65676946  0.18147228     0.08300
C1182       C  0.35471503  0.65985172  0.19299367    -0.01800
Br1183     Br  0.35180335  0.68413876  0.20881887    -0.00400
Br1184     Br  0.31624700  0.64945761  0.20991045    -0.00500
Br1185     Br  0.39715691  0.63421599  0.15368583    -0.00400
Br1186     Br  0.36266160  0.59894434  0.15627204    -0.00400
C1187       C  0.06454507  0.73864255  0.41218964    -0.01500
C1188       C  0.05441055  0.72310101  0.40163268     0.08200
C1189       C  0.06552930  0.70883462  0.39062549    -0.01600
C1190       C  0.08656005  0.70933043  0.39117207    -0.01600
C1191       C  0.09672781  0.72378205  0.40309050     0.08300
C1192       C  0.08573254  0.73891164  0.41302800    -0.01800
Br1193     Br  0.09955943  0.75866617  0.42948741    -0.00400
Br1194     Br  0.04948267  0.75820654  0.42723542    -0.00500
Br1195     Br  0.10154545  0.68972518  0.37595524    -0.00400
Br1196     Br  0.05197016  0.68778459  0.37550984    -0.00400
C1197       C  0.98218743  0.50896406  0.28421810    -0.01500
C1198       C  0.99946324  0.51950302  0.29069439     0.08200
C1199       C  0.01594510  0.50906070  0.29866760    -0.01600
C1200       C  0.01517573  0.48805965  0.30015057    -0.01600
C1201       C  0.99789915  0.47744182  0.29359005     0.08300
C1202       C  0.98136959  0.48797279  0.28571231    -0.01800
Br1203     Br  0.95708321  0.47383451  0.27813544    -0.00400
Br1204     Br  0.95926075  0.52343253  0.27419549    -0.00500
Br1205     Br  0.03818897  0.47388696  0.31040548    -0.00400
Br1206     Br  0.03992778  0.52351531  0.30670049    -0.00400
C1207       C  0.09515938  0.58288768  0.26265380    -0.01500
C1208       C  0.10511775  0.59436897  0.27773848     0.08200
C1209       C  0.09403540  0.60795743  0.28957384    -0.01600
C1210       C  0.07308596  0.60889306  0.28748636    -0.01600
C1211       C  0.06292115  0.59608494  0.27375335     0.08300
C1212       C  0.07405464  0.58374306  0.26068489    -0.01800
Br1213     Br  0.06023366  0.56642923  0.24164817    -0.00400
Br1214     Br  0.11002204  0.56425515  0.24628852    -0.00500
Br1215     Br  0.05810448  0.62716278  0.30424473    -0.00400
Br1216     Br  0.10740564  0.62487102  0.30933220    -0.00400
C1217       C  0.00112150  0.65028159  0.32864946    -0.01500
C1218       C  0.99490873  0.63044704  0.33270375     0.08200
C1219       C  0.98641823  0.62615623  0.35152107    -0.01600
C1220       C  0.98525098  0.64118664  0.36649316    -0.01600
C1221       C  0.99256060  0.66068164  0.36283744     0.08300
C1222       C  0.00010062  0.66525487  0.34366995    -0.01800
Br1223     Br  0.00998096  0.69182896  0.33772742    -0.00400
Br1224     Br  0.01156741  0.65744182  0.30269844    -0.00500
Br1225     Br  0.97224373  0.63514560  0.39152211    -0.00400
Br1226     Br  0.97473855  0.60015243  0.35655765    -0.00400
C1227       C  0.41552244  0.72683223  0.07604835    -0.01500
C1228       C  0.40431870  0.71186170  0.06576368     0.08200
C1229       C  0.39277532  0.69821029  0.07683025    -0.01600
C1230       C  0.39371015  0.69845618  0.09794196    -0.01600
C1231       C  0.40637765  0.71222065  0.10823689     0.08300
C1232       C  0.41687550  0.72678264  0.09722854    -0.01800
Br1233     Br  0.43501453  0.74516562  0.11082113    -0.00400
Br1234     Br  0.43031912  0.74644222  0.06113626    -0.00500
Br1235     Br  0.37762500  0.67971573  0.11273932    -0.00400
Br1236     Br  0.37561008  0.67900219  0.06300327    -0.00400
C1237       C  0.30848268  0.48410566  0.99289762    -0.01500
C1238       C  0.29872230  0.47343553  0.00806236     0.08200
C1239       C  0.28949999  0.48375084  0.02404966    -0.01600
C1240       C  0.28982367  0.50477200  0.02473574    -0.01600
C1241       C  0.29890706  0.51546921  0.00917074     0.08300
C1242       C  0.30860813  0.50513426  0.99346011    -0.01800
Br1243     Br  0.32085517  0.51962042  0.97185191    -0.00400
Br1244     Br  0.32001753  0.47000547  0.97030601    -0.00500
Br1245     Br  0.27855961  0.51887706  0.04742773    -0.00400
Br1246     Br  0.27646047  0.46913056  0.04508513    -0.00400
C1247       C  0.29160992  0.60623866  0.07903206    -0.01500
C1248       C  0.27888323  0.59286468  0.06823528     0.08200
C1249       C  0.26524369  0.58084416  0.07883118    -0.01600
C1250       C  0.26584691  0.58070282  0.10004185    -0.01600
C1251       C  0.27971828  0.59294186  0.11071729     0.08300
C1252       C  0.29191666  0.60635244  0.10016471    -0.01800
Br1253     Br  0.30918402  0.62484981  0.11478056    -0.00400
Br1254     Br  0.30890451  0.62434933  0.06483192    -0.00500
Br1255     Br  0.24906775  0.56230499  0.11438454    -0.00400
Br1256     Br  0.24688273  0.56331679  0.06443401    -0.00400
C1257       C  0.34476429  0.63234456  0.98375763    -0.01500
C1258       C  0.34419325  0.61864272  0.99961435     0.08200
C1259       C  0.35965747  0.61852656  0.01421477    -0.01600
C1260       C  0.37511099  0.63284714  0.01352059    -0.01600
C1261       C  0.37504492  0.64723954  0.99822911     0.08300
C1262       C  0.36022013  0.64659430  0.98303843    -0.01800
Br1263     Br  0.36139071  0.66490488  0.96091467    -0.00400
Br1264     Br  0.32463039  0.63135278  0.96272364    -0.00500
Br1265     Br  0.39542274  0.63358755  0.03442630    -0.00400
Br1266     Br  0.35889808  0.59987122  0.03611356    -0.00400
C1267       C  0.51488989  0.71704231  0.17234892    -0.01500
C1268       C  0.52510328  0.69869026  0.17006325     0.08200
C1269       C  0.51412126  0.68060467  0.16915372    -0.01600
C1270       C  0.49298402  0.68087771  0.17023949    -0.01600
C1271       C  0.48270301  0.69929375  0.17228495     0.08300
C1272       C  0.49386647  0.71735369  0.17357803    -0.01800
Br1273     Br  0.48069599  0.74276450  0.17813328    -0.00400
Br1274     Br  0.52974789  0.74198275  0.17469618    -0.00500
Br1275     Br  0.47826964  0.65600345  0.16766866    -0.00400
Br1276     Br  0.52795370  0.65556027  0.16506315    -0.00400
C1277       C  0.63258196  0.64217567  0.19183123    -0.01500
C1278       C  0.63585051  0.65910027  0.17980278     0.08200
C1279       C  0.65396130  0.66057311  0.16903714    -0.01600
C1280       C  0.66789379  0.64474758  0.16923607    -0.01600
C1281       C  0.66421335  0.62744126  0.18060596     0.08300
C1282       C  0.64666250  0.62643475  0.19226553    -0.01800
Br1283     Br  0.64221957  0.60389755  0.20954071    -0.00400
Br1284     Br  0.60935024  0.64097674  0.20879184    -0.00500
Br1285     Br  0.69130991  0.64642164  0.15241510    -0.00400
Br1286     Br  0.65960315  0.68378379  0.15307842    -0.00400
C1287       C  0.77156210  0.56759179  0.21533467    -0.01500
C1288       C  0.75760423  0.58335691  0.21446460     0.08200
C1289       C  0.75993584  0.60018873  0.22729521    -0.01600
C1290       C  0.77582975  0.60098068  0.24138871    -0.01600
C1291       C  0.78905751  0.58466548  0.24309709     0.08300
C1292       C  0.78707579  0.56809711  0.22981884    -0.01800
Br1293     Br  0.80481064  0.54542315  0.23228260    -0.00400
Br1294     Br  0.76895403  0.54483911  0.19728058    -0.00500
Br1295     Br  0.78013909  0.62480821  0.25758633    -0.00400
Br1296     Br  0.74166103  0.62240020  0.22506486    -0.00400
C1297       C  0.90728255  0.60527590  0.28651561    -0.01500
C1298       C  0.89636140  0.59064669  0.27550419     0.08200
C1299       C  0.90617118  0.57881144  0.26089493    -0.01600
C1300       C  0.92710664  0.58050709  0.25855585    -0.01600
C1301       C  0.93824358  0.59357662  0.27118724     0.08300
C1302       C  0.92814810  0.60678924  0.28427034    -0.01800
Br1303     Br  0.94315654  0.62672017  0.29948634    -0.00400
Br1304     Br  0.89372459  0.62295370  0.30506949    -0.00500
Br1305     Br  0.94072119  0.56410692  0.23902092    -0.00400
Br1306     Br  0.89142339  0.55866952  0.24575681    -0.00400
C1307       C  0.48992485  0.81646047  0.31065612    -0.01500
C1308       C  0.47855339  0.83367302  0.30606092     0.08200
C1309       C  0.48865388  0.85185477  0.30219172    -0.01600
C1310       C  0.50971165  0.85232707  0.30089900    -0.01600
C1311       C  0.52092765  0.83477053  0.30389535     0.08300
C1312       C  0.51106020  0.81705177  0.30959657    -0.01800
Br1313     Br  0.52644797  0.79314833  0.31440976    -0.00400
Br1314     Br  0.47674891  0.79157660  0.31696173    -0.00500
Br1315     Br  0.52331437  0.87713837  0.29511958    -0.00400
Br1316     Br  0.47374420  0.87640384  0.29934912    -0.00400
C1317       C  0.58824145  0.78854787  0.22374029    -0.01500
C1318       C  0.59033068  0.78428009  0.24434661     0.08200
C1319       C  0.59289719  0.76423797  0.25034823    -0.01600
C1320       C  0.59362146  0.74864186  0.23585457    -0.01600
C1321       C  0.59126832  0.75289051  0.21525110     0.08300
C1322       C  0.58818751  0.77288845  0.20931849    -0.01800
Br1323     Br  0.58196956  0.77879900  0.18163798    -0.00400
Br1324     Br  0.58443293  0.81582090  0.21517737    -0.00500
Br1325     Br  0.59866211  0.72154054  0.24432011    -0.00400
Br1326     Br  0.59639597  0.75813678  0.27840764    -0.00400
C1327       C  0.83889839  0.64047063  0.36995950    -0.01500
C1328       C  0.82399371  0.65537321  0.36827740     0.08200
C1329       C  0.81022330  0.65434043  0.35201500    -0.01600
C1330       C  0.81172460  0.63899373  0.33731108    -0.01600
C1331       C  0.82686809  0.62434471  0.33875940     0.08300
C1332       C  0.84031943  0.62504760  0.35529985    -0.01800
Br1333     Br  0.86175629  0.60578948  0.35721111    -0.00400
Br1334     Br  0.85840835  0.64181156  0.39160381    -0.00500
Br1335     Br  0.79243738  0.63770529  0.31548673    -0.00400
Br1336     Br  0.78857603  0.67337788  0.35027812    -0.00400
C1337       C  0.89825544  0.71016957  0.38578503    -0.01500
C1338       C  0.88819929  0.72187797  0.40020598     0.08200
C1339       C  0.89914096  0.73521051  0.41279966    -0.01600
C1340       C  0.92023129  0.73588603  0.41183083    -0.01600
C1341       C  0.93035887  0.72283099  0.39864075     0.08300
C1342       C  0.91930523  0.71053604  0.38510571    -0.01800
Br1343     Br  0.93315716  0.69328574  0.36637065    -0.00400
Br1344     Br  0.88329620  0.69206042  0.36836045    -0.00500
Br1345     Br  0.93531472  0.75325539  0.42983760    -0.00400
Br1346     Br  0.88523438  0.75178543  0.43201018    -0.00400
C1347       C  0.64939664  0.84858021  0.36371287    -0.01500
C1348       C  0.65913883  0.83059965  0.36856149     0.08200
C1349       C  0.65378416  0.81275044  0.35833142    -0.01600
C1350       C  0.63960244  0.81304747  0.34242448    -0.01600
C1351       C  0.62950021  0.83106058  0.33762167     0.08300
C1352       C  0.63428390  0.84874876  0.34874000    -0.01800
Br1353     Br  0.61960349  0.87326338  0.34450715    -0.00400
Br1354     Br  0.65650381  0.87295564  0.37813274    -0.00500
Br1355     Br  0.63564687  0.78906999  0.32629280    -0.00400
Br1356     Br  0.66622430  0.78791524  0.36604367    -0.00400
C1357       C  0.76832206  0.78637142  0.39481059    -0.01500
C1358       C  0.74965989  0.78340615  0.40423016     0.08200
C1359       C  0.74544554  0.76461298  0.41280294    -0.01600
C1360       C  0.75984585  0.74919501  0.41241634    -0.01600
C1361       C  0.77896544  0.75263403  0.40411094     0.08300
C1362       C  0.78302858  0.77126242  0.39520004    -0.01800
Br1363     Br  0.80864072  0.77618828  0.38288060    -0.00400
Br1364     Br  0.77346560  0.81068918  0.38029927    -0.00500
Br1365     Br  0.75361150  0.72383881  0.42460664    -0.00400
Br1366     Br  0.72051728  0.76002831  0.42659466    -0.00400
C1367       C  0.72440774  0.92694701  0.39083917    -0.01500
C1368       C  0.72594910  0.93827611  0.40878680     0.08200
C1369       C  0.72860648  0.92846595  0.42722198    -0.01600
C1370       C  0.72783626  0.90742830  0.42792692    -0.01600
C1371       C  0.72432068  0.89610411  0.41018473     0.08300
C1372       C  0.72342780  0.90586888  0.39153270    -0.01800
Br1373     Br  0.71827884  0.89068830  0.36714459    -0.00400
Br1374     Br  0.72129535  0.94033770  0.36552574    -0.00500
Br1375     Br  0.73111645  0.89418864  0.45332984    -0.00400
Br1376     Br  0.73247133  0.94403763  0.45166266    -0.00400
C1377       C  0.49228879  0.01830369  0.29430718    -0.01500
C1378       C  0.48146808  0.00101517  0.29935230     0.08200
C1379       C  0.49148353  0.98307019  0.30367205    -0.01600
C1380       C  0.51238771  0.98206335  0.30180564    -0.01600
C1381       C  0.52323019  0.99920008  0.29608072     0.08300
C1382       C  0.51323275  0.01745604  0.29284963    -0.01800
Br1383     Br  0.52824407  0.04141425  0.28698577    -0.00400
Br1384     Br  0.47833520  0.04310353  0.28955397    -0.00500
Br1385     Br  0.52583143  0.95679982  0.30550012    -0.00400
Br1386     Br  0.47635044  0.95964467  0.31113607    -0.00400
C1387       C  0.57832709  0.92519738  0.25183361    -0.01500
C1388       C  0.59460206  0.93586210  0.26046764     0.08200
C1389       C  0.61130922  0.92516679  0.26771561    -0.01600
C1390       C  0.61026639  0.90414482  0.26933846    -0.01600
C1391       C  0.59255827  0.89383076  0.26367067     0.08300
C1392       C  0.57707250  0.90423502  0.25379709    -0.01800
Br1393     Br  0.55392042  0.88986502  0.24359888    -0.00400
Br1394     Br  0.55792010  0.93956910  0.23732383    -0.00500
Br1395     Br  0.63221748  0.88976340  0.28142518    -0.00400
Br1396     Br  0.63489404  0.93932936  0.27716668    -0.00400
C1397       C  0.63439847  0.97302530  0.34469038    -0.01500
C1398       C  0.62459480  0.99086579  0.33942875     0.08200
C1399       C  0.62843109  0.00872639  0.35034768    -0.01600
C1400       C  0.64280233  0.00895784  0.36587556    -0.01600
C1401       C  0.65352720  0.99141052  0.37028414     0.08300
C1402       C  0.64894431  0.97329622  0.36011547    -0.01800
Br1403     Br  0.66225975  0.94886828  0.36761554    -0.00400
Br1404     Br  0.62760961  0.94824270  0.33098045    -0.00500
Br1405     Br  0.64882893  0.03371460  0.38013011    -0.00400
Br1406     Br  0.61525536  0.03330468  0.34302225    -0.00400
C1407       C  0.70451137  0.56450466  0.07672727    -0.01500
C1408       C  0.71354392  0.58082097  0.06688556     0.08200
C1409       C  0.72341594  0.59588245  0.07840290    -0.01600
C1410       C  0.72316997  0.59525345  0.09958363    -0.01600
C1411       C  0.71361997  0.57923137  0.10932181     0.08300
C1412       C  0.70507832  0.56344764  0.09776238    -0.01800
Br1413     Br  0.69482114  0.53975925  0.11061175    -0.00400
Br1414     Br  0.69096697  0.54336741  0.06161040    -0.00500
Br1415     Br  0.73450879  0.61722262  0.11515324    -0.00400
Br1416     Br  0.73579408  0.61829851  0.06538675    -0.00400
C1417       C  0.51166149  0.68327188  0.99205110    -0.01500
C1418       C  0.52216658  0.69220816  0.00835450     0.08200
C1419       C  0.51165032  0.69963643  0.02507598    -0.01600
C1420       C  0.49061655  0.69969256  0.02480062    -0.01600
C1421       C  0.48011062  0.69191577  0.00794987     0.08300
C1422       C  0.49061610  0.68328795  0.99177773    -0.01800
Br1423     Br  0.47629140  0.67333237  0.96828828    -0.00400
Br1424     Br  0.52590133  0.67219983  0.96941269    -0.00500
Br1425     Br  0.47624846  0.71038625  0.04753694    -0.00400
Br1426     Br  0.52609768  0.70905612  0.04866422    -0.00400
C1427       C  0.61261609  0.71109003  0.07384380    -0.01500
C1428       C  0.59758804  0.72223546  0.06412055     0.08200
C1429       C  0.58419099  0.73381518  0.07560253    -0.01600
C1430       C  0.58454095  0.73255816  0.09674024    -0.01600
C1431       C  0.59836180  0.71975976  0.10633336     0.08300
C1432       C  0.61284858  0.70964758  0.09483697    -0.01800
Br1433     Br  0.63264661  0.69313017  0.10768342    -0.00400
Br1434     Br  0.63254824  0.69716206  0.05816463    -0.00500
Br1435     Br  0.56454245  0.74646579  0.11226515    -0.00400
Br1436     Br  0.56422756  0.74988840  0.06236221    -0.00400
C1437       C  0.64865173  0.66075037  0.99007552    -0.01500
C1438       C  0.63149189  0.65966085  0.00217538     0.08200
C1439       C  0.62934122  0.64383147  0.01583659    -0.01600
C1440       C  0.64393504  0.62879828  0.01687642    -0.01600
C1441       C  0.66063397  0.62941681  0.00417862     0.08300
C1442       C  0.66325221  0.64566670  0.99110186    -0.01800
Br1443     Br  0.68634155  0.64700412  0.97388154    -0.00400
Br1444     Br  0.65175032  0.68222799  0.97120081    -0.00500
Br1445     Br  0.64166242  0.60806086  0.03670794    -0.00400
Br1446     Br  0.60696538  0.64312467  0.03400217    -0.00400
C1447       C  0.92809680  0.25917351  0.41399577    -0.01500
C1448       C  0.93845816  0.27031601  0.39956806     0.08200
C1449       C  0.92772991  0.27923711  0.38377082    -0.01600
C1450       C  0.90662975  0.27868846  0.38345149    -0.01600
C1451       C  0.89615875  0.26923960  0.39899514     0.08300
C1452       C  0.90695028  0.25846580  0.41362128    -0.01800
Br1453     Br  0.89286843  0.24449967  0.43437769    -0.00400
Br1454     Br  0.94286835  0.24665006  0.43543906    -0.00500
Br1455     Br  0.89201044  0.29130389  0.36195720    -0.00400
Br1456     Br  0.94209315  0.29342461  0.36337835    -0.00400
C1457       C  0.76542297  0.24324629  0.39758330    -0.01500
C1458       C  0.78461284  0.23836851  0.40522575     0.08200
C1459       C  0.78775945  0.21912008  0.41332735    -0.01600
C1460       C  0.77204008  0.20489681  0.41335210    -0.01600
C1461       C  0.75281614  0.20994121  0.40600175     0.08300
C1462       C  0.74954075  0.22923957  0.39825178    -0.01800
Br1463     Br  0.72344503  0.23628187  0.38778154    -0.00400
Br1464     Br  0.76088800  0.26884820  0.38520935    -0.00500
Br1465     Br  0.77666613  0.17876745  0.42466407    -0.00400
Br1466     Br  0.81302271  0.21260398  0.42602512    -0.00400
C1467       C  0.71180302  0.09161419  0.38240684    -0.01500
C1468       C  0.72136651  0.10239486  0.39821153     0.08200
C1469       C  0.73418281  0.09203800  0.41152122    -0.01600
C1470       C  0.73491603  0.07088134  0.41080954    -0.01600
C1471       C  0.72298519  0.06009212  0.39675650     0.08300
C1472       C  0.71261256  0.07055565  0.38170793    -0.01800
Br1473     Br  0.69928442  0.05583713  0.36023545    -0.00400
Br1474     Br  0.69777505  0.10562886  0.36149423    -0.00500
Br1475     Br  0.75088308  0.05668127  0.43016491    -0.00400
Br1476     Br  0.74953117  0.10643942  0.43181698    -0.00400
C1477       C  0.81144689  0.50330057  0.29504111    -0.01500
C1478       C  0.82955303  0.51377094  0.29913840     0.08200
C1479       C  0.84706622  0.50282218  0.30367433    -0.01600
C1480       C  0.84679713  0.48172922  0.30297218    -0.01600
C1481       C  0.82892013  0.47128682  0.29820903     0.08300
C1482       C  0.81108645  0.48211962  0.29488851    -0.01800
Br1483     Br  0.78642620  0.46798701  0.28864027    -0.00400
Br1484     Br  0.78750588  0.51772998  0.28767065    -0.00500
Br1485     Br  0.87101857  0.46706675  0.30888892    -0.00400
Br1486     Br  0.87153257  0.51664595  0.31133688    -0.00400
C1487       C  0.81277108  0.34488576  0.33382964    -0.01500
C1488       C  0.82570505  0.36167790  0.33536996     0.08200
C1489       C  0.83873199  0.36352355  0.35220912    -0.01600
C1490       C  0.83886621  0.34876934  0.36720975    -0.01600
C1491       C  0.82623484  0.33173635  0.36543847     0.08300
C1492       C  0.81309585  0.32998988  0.34869918    -0.01800
Br1493     Br  0.79479819  0.30755136  0.34642939    -0.00400
Br1494     Br  0.79389110  0.34253406  0.31173652    -0.00500
Br1495     Br  0.85753441  0.35146569  0.38949331    -0.00400
Br1496     Br  0.85775693  0.38543002  0.35411342    -0.00400
C1497       C  0.90524054  0.38300815  0.29060258    -0.01500
C1498       C  0.89491833  0.39564434  0.27733273     0.08200
C1499       C  0.90567051  0.40680609  0.26322185    -0.01600
C1500       C  0.92681008  0.40666021  0.26356887    -0.01600
C1501       C  0.93713812  0.39578773  0.27842604     0.08300
C1502       C  0.92631218  0.38311228  0.29120521    -0.01800
Br1503     Br  0.94039345  0.36615922  0.30985353    -0.00400
Br1504     Br  0.89037020  0.36603143  0.30837531    -0.00500
Br1505     Br  0.94146187  0.42278715  0.24490363    -0.00400
Br1506     Br  0.89145477  0.42388201  0.24486243    -0.00400
C1507       C  0.68178138  0.48271661  0.16612192    -0.01500
C1508       C  0.69631305  0.47198014  0.17705284     0.08200
C1509       C  0.70866873  0.48215346  0.19123152    -0.01600
C1510       C  0.70709683  0.50305506  0.19376835    -0.01600
C1511       C  0.69374439  0.51390786  0.18165220     0.08300
C1512       C  0.68058806  0.50369477  0.16836489    -0.01800
Br1513     Br  0.66150014  0.51871239  0.15275274    -0.00400
Br1514     Br  0.66489892  0.46900593  0.14663964    -0.00500
Br1515     Br  0.72383264  0.51711245  0.21316414    -0.00400
Br1516     Br  0.72828531  0.46761685  0.20666956    -0.00400
C1517       C  0.77241838  0.41570532  0.20807852    -0.01500
C1518       C  0.75566395  0.40275433  0.20956497     0.08200
C1519       C  0.75449303  0.38958857  0.22589554    -0.01600
C1520       C  0.76971583  0.38951297  0.24072990    -0.01600
C1521       C  0.78633893  0.40255206  0.23936731     0.08300
C1522       C  0.78768454  0.41556712  0.22290441    -0.01800
Br1523     Br  0.80970063  0.43437303  0.22127811    -0.00400
Br1524     Br  0.77392639  0.43477543  0.18655951    -0.00500
Br1525     Br  0.76811018  0.37089797  0.26257505    -0.00400
Br1526     Br  0.73244736  0.37089454  0.22765961    -0.00400
C1527       C  0.48730692  0.18518912  0.29216040    -0.01500
C1528       C  0.47604750  0.16722718  0.29159465     0.08200
C1529       C  0.48607363  0.14867736  0.29230909    -0.01600
C1530       C  0.50715447  0.14804639  0.29330359    -0.01600
C1531       C  0.51850243  0.16596732  0.29315847     0.08300
C1532       C  0.50845821  0.18457786  0.29306974    -0.01800
Br1533     Br  0.52351297  0.20935427  0.29294076    -0.00400
Br1534     Br  0.47385900  0.21062077  0.28985927    -0.00500
Br1535     Br  0.52042149  0.12249304  0.29582543    -0.00400
Br1536     Br  0.47093260  0.12392626  0.29223843    -0.00400
C1537       C  0.62425869  0.18065463  0.35201008    -0.01500
C1538       C  0.62855274  0.17266793  0.33278376     0.08200
C1539       C  0.64806776  0.16561635  0.32885524    -0.01600
C1540       C  0.66281822  0.16566440  0.34415734    -0.01600
C1541       C  0.65854879  0.17346768  0.36348363     0.08300
C1542       C  0.63932655  0.18153414  0.36711101    -0.01800
Br1543     Br  0.63393066  0.19505473  0.39227275    -0.00400
Br1544     Br  0.59787298  0.19095878  0.35759542    -0.00500
Br1545     Br  0.68846039  0.15358157  0.33860505    -0.00400
Br1546     Br  0.65451025  0.15452218  0.30277056    -0.00400
C1547       C  0.58352909  0.08899610  0.25965534    -0.01500
C1548       C  0.59746591  0.09973251  0.27173002     0.08200
C1549       C  0.61314259  0.08942416  0.28135477    -0.01600
C1550       C  0.61384877  0.06835451  0.28035315    -0.01600
C1551       C  0.59871707  0.05745514  0.26995968     0.08300
C1552       C  0.58421895  0.06788072  0.25863730    -0.01800
Br1553     Br  0.56420641  0.05337709  0.24313907    -0.00400
Br1554     Br  0.56221718  0.10315949  0.24619813    -0.00500
Br1555     Br  0.63555731  0.05430537  0.29331086    -0.00400
Br1556     Br  0.63338696  0.10413103  0.29628951    -0.00400
C1557       C  0.50830156  0.29534093  0.18163700    -0.01500
C1558       C  0.51890941  0.29664064  0.16346492     0.08200
C1559       C  0.50813327  0.29964650  0.14536832    -0.01600
C1560       C  0.48696909  0.30031830  0.14534468    -0.01600
C1561       C  0.47635540  0.29827539  0.16343231     0.08300
C1562       C  0.48717363  0.29643512  0.18164291    -0.01800
Br1563     Br  0.47305430  0.29392487  0.20660744    -0.00400
Br1564     Br  0.52246380  0.29002835  0.20642631    -0.00500
Br1565     Br  0.47250072  0.30463553  0.12052339    -0.00400
Br1566     Br  0.52233518  0.30337084  0.12057275    -0.00400
C1567       C  0.60387308  0.23491465  0.22091857    -0.01500
C1568       C  0.58794532  0.23598443  0.20687236     0.08200
C1569       C  0.57268073  0.22125003  0.20696232    -0.01600
C1570       C  0.57305346  0.20596244  0.22137724    -0.01600
C1571       C  0.58847884  0.20553930  0.23605851     0.08300
C1572       C  0.60409710  0.21979464  0.23548153    -0.01800
Br1573     Br  0.62640655  0.21792282  0.25402985    -0.00400
Br1574     Br  0.62593558  0.25359816  0.21961422    -0.00500
Br1575     Br  0.55184461  0.18616890  0.22152045    -0.00400
Br1576     Br  0.55044411  0.22271063  0.18822152    -0.00400
C1577       C  0.62768878  0.34920175  0.15883888    -0.01500
C1578       C  0.62994783  0.33205528  0.17092184     0.08200
C1579       C  0.64755792  0.33004533  0.18268378    -0.01600
C1580       C  0.66262361  0.34500448  0.18253682    -0.01600
C1581       C  0.66033770  0.36212674  0.17046963     0.08300
C1582       C  0.64279421  0.36406481  0.15860002    -0.01800
Br1583     Br  0.63989141  0.38639537  0.14063663    -0.00400
Br1584     Br  0.60462835  0.35179104  0.14125177    -0.00500
Br1585     Br  0.68601754  0.34234967  0.19958395    -0.00400
Br1586     Br  0.65093833  0.30708300  0.19968000    -0.00400
C1587       C  0.69595747  0.50688882  0.98416173    -0.01500
C1588       C  0.70621907  0.51737309  0.99965689     0.08200
C1589       C  0.71733894  0.50679545  0.01414425    -0.01600
C1590       C  0.71748506  0.48573987  0.01361078    -0.01600
C1591       C  0.70671528  0.47523007  0.99841447     0.08300
C1592       C  0.69595700  0.48584860  0.98368758    -0.01800
Br1593     Br  0.68192758  0.47174847  0.96220025    -0.00400
Br1594     Br  0.68343195  0.52139374  0.96253943    -0.00500
Br1595     Br  0.73153767  0.47138165  0.03443404    -0.00400
Br1596     Br  0.73219179  0.52098082  0.03498572    -0.00400
C1597       C  0.70313877  0.38968767  0.06830553    -0.01500
C1598       C  0.71893179  0.39921258  0.05809408     0.08200
C1599       C  0.73484326  0.40801100  0.06933903    -0.01600
C1600       C  0.73418339  0.40847262  0.09054192    -0.01600
C1601       C  0.71744237  0.40057283  0.10051705     0.08300
C1602       C  0.70239859  0.39043013  0.08938113    -0.01800
Br1603     Br  0.68087551  0.37715592  0.10314206    -0.00400
Br1604     Br  0.68222920  0.37558044  0.05354158    -0.00500
Br1605     Br  0.75559543  0.42101815  0.10587126    -0.00400
Br1606     Br  0.75655779  0.42117482  0.05587140    -0.00400
C1607       C  0.51348378  0.30868124  0.98578462    -0.01500
C1608       C  0.52379496  0.30053287  0.00232819     0.08200
C1609       C  0.51307835  0.29376376  0.01905140    -0.01600
C1610       C  0.49203994  0.29440774  0.01886344    -0.01600
C1611       C  0.48173266  0.30181820  0.00200227     0.08300
C1612       C  0.49245024  0.30953351  0.98572096    -0.01800
Br1613     Br  0.47836781  0.32005965  0.96273123    -0.00400
Br1614     Br  0.52802517  0.31691042  0.96235560    -0.00500
Br1615     Br  0.47723653  0.28562598  0.04189654    -0.00400
Br1616     Br  0.52712946  0.28387897  0.04234065    -0.00400
C1617       C  0.61251359  0.28844047  0.07063015    -0.01500
C1618       C  0.59971993  0.27614161  0.05866450     0.08200
C1619       C  0.58734137  0.26187254  0.06797321    -0.01600
C1620       C  0.58651444  0.26117862  0.08908496    -0.01600
C1621       C  0.59801993  0.27472223  0.10088155     0.08300
C1622       C  0.61178089  0.28758078  0.09166442    -0.01800
Br1623     Br  0.62949865  0.30420133  0.10800541    -0.00400
Br1624     Br  0.63063044  0.30711288  0.05838961    -0.00500
Br1625     Br  0.56810672  0.24308916  0.10179809    -0.00400
Br1626     Br  0.56963251  0.24493475  0.05207546    -0.00400
C1627       C  0.63117403  0.35318581  0.97675579    -0.01500
C1628       C  0.63436204  0.33563638  0.98799871     0.08200
C1629       C  0.65311171  0.33240148  0.99732029    -0.01600
C1630       C  0.66817193  0.34706930  0.99656835    -0.01600
C1631       C  0.66447227  0.36524126  0.98653233     0.08300
C1632       C  0.64618924  0.36801608  0.97620769    -0.01800
Br1633     Br  0.64188251  0.39175971  0.96046746    -0.00400
Br1634     Br  0.60687989  0.35635151  0.96110971    -0.00500
Br1635     Br  0.69332898  0.34248606  0.01049577    -0.00400
Br1636     Br  0.65834204  0.30832388  0.01230275    -0.00400
C1637       C  0.17662311  0.69764549  0.49210726    -0.01500
C1638       C  0.16032923  0.70601647  0.48149394     0.08200
C1639       C  0.14404902  0.71401070  0.49228560    -0.01600
C1640       C  0.14431098  0.71419026  0.51344013    -0.01600
C1641       C  0.16051952  0.70563272  0.52419666     0.08300
C1642       C  0.17668293  0.69735181  0.51332912    -0.01800
Br1643     Br  0.19997125  0.68740965  0.52735856    -0.00400
Br1644     Br  0.19971237  0.68804992  0.47767274    -0.00500
Br1645     Br  0.12214937  0.72645860  0.52732332    -0.00400
Br1646     Br  0.12079646  0.72416414  0.47810997    -0.00400
C1647       C  0.15722083  0.64443638  0.63320728    -0.01500
C1648       C  0.16778833  0.66266335  0.63614667     0.08200
C1649       C  0.17856640  0.66585651  0.65434624    -0.01600
C1650       C  0.17866712  0.65106333  0.66937428    -0.01600
C1651       C  0.16803206  0.63286961  0.66639592     0.08300
C1652       C  0.15733724  0.62968670  0.64818350    -0.01800
Br1653     Br  0.14133002  0.60571920  0.64420654    -0.00400
Br1654     Br  0.14105840  0.64009261  0.60927939    -0.00500
Br1655     Br  0.19405821  0.65554193  0.69376284    -0.00400
Br1656     Br  0.19390239  0.69019240  0.65851745    -0.00400
C1657       C  0.22153519  0.58130694  0.79179330    -0.01500
C1658       C  0.23807301  0.59451249  0.79047928     0.08200
C1659       C  0.23963381  0.60703449  0.77364911    -0.01600
C1660       C  0.22452721  0.60677053  0.75860906    -0.01600
C1661       C  0.20796933  0.59363410  0.76000809     0.08300
C1662       C  0.20671453  0.58071690  0.77653530    -0.01800
Br1663     Br  0.18561587  0.56082474  0.77742300    -0.00400
Br1664     Br  0.21985991  0.56273241  0.81369577    -0.00500
Br1665     Br  0.22622462  0.62493917  0.73641720    -0.00400
Br1666     Br  0.26225999  0.62492620  0.77131577    -0.00400
C1667       C  0.26976925  0.56840960  0.91096319    -0.01500
C1668       C  0.27082763  0.58732720  0.90176072     0.08200
C1669       C  0.26930622  0.60483037  0.91385136    -0.01600
C1670       C  0.26906002  0.60342451  0.93500833    -0.01600
C1671       C  0.27054621  0.58454100  0.94417879     0.08300
C1672       C  0.26967452  0.56704163  0.93204451    -0.01800
Br1673     Br  0.26827114  0.54105865  0.94442900    -0.00400
Br1674     Br  0.26805903  0.54422237  0.89473897    -0.00500
Br1675     Br  0.26824884  0.62751079  0.95130895    -0.00400
Br1676     Br  0.26932574  0.63089154  0.90170555    -0.00400
C1677       C  0.30691158  0.81236145  0.51473314    -0.01500
C1678       C  0.29238852  0.82364819  0.52540177     0.08200
C1679       C  0.27836269  0.83500910  0.51431507    -0.01600
C1680       C  0.27811901  0.83429104  0.49314935    -0.01600
C1681       C  0.29304092  0.82366166  0.48254723     0.08300
C1682       C  0.30756912  0.81293789  0.49349835    -0.01800
Br1683     Br  0.32776544  0.79789408  0.47936191    -0.00400
Br1684     Br  0.32506030  0.79490880  0.52882274    -0.00500
Br1685     Br  0.25726823  0.84831760  0.47882680    -0.00400
Br1686     Br  0.26004848  0.85306713  0.52769620    -0.00400
C1687       C  0.22159674  0.78620988  0.59183502    -0.01500
C1688       C  0.24052821  0.78098637  0.59985422     0.08200
C1689       C  0.24327987  0.76167161  0.60782650    -0.01600
C1690       C  0.22728741  0.74771129  0.60760243    -0.01600
C1691       C  0.20845947  0.75285507  0.59928314     0.08300
C1692       C  0.20572413  0.77219600  0.59139413    -0.01800
Br1693     Br  0.18078702  0.77901682  0.57820684    -0.00400
Br1694     Br  0.21760814  0.81215918  0.57990278    -0.00500
Br1695     Br  0.23110628  0.72167234  0.61927651    -0.00400
Br1696     Br  0.26874197  0.75453099  0.61969958    -0.00400
C1697       C  0.34942862  0.81057544  0.67047974    -0.01500
C1698       C  0.36733462  0.82128130  0.66682339     0.08200
C1699       C  0.36957059  0.83088584  0.64818127    -0.01600
C1700       C  0.35431661  0.82950035  0.63334776    -0.01600
C1701       C  0.33646598  0.81875384  0.63696673     0.08300
C1702       C  0.33401360  0.80949992  0.65574549    -0.01800
Br1703     Br  0.30955583  0.79517804  0.66136227    -0.00400
Br1704     Br  0.34598004  0.79686602  0.69556575    -0.00500
Br1705     Br  0.35717626  0.84420107  0.60875076    -0.00400
Br1706     Br  0.39260005  0.84777166  0.64354388    -0.00400
C1707       C  0.34548217  0.66762836  0.82180627    -0.01500
C1708       C  0.36449526  0.66341570  0.83037594     0.08200
C1709       C  0.36769997  0.64450783  0.83910321    -0.01600
C1710       C  0.35218839  0.63004377  0.83930591    -0.01600
C1711       C  0.33305714  0.63439155  0.83113658     0.08300
C1712       C  0.32986263  0.65324682  0.82228740    -0.01800
Br1713     Br  0.30429156  0.65919755  0.80992787    -0.00400
Br1714     Br  0.34092610  0.69282047  0.80860358    -0.00500
Br1715     Br  0.35696887  0.60468532  0.85209075    -0.00400
Br1716     Br  0.39286650  0.63877585  0.85243776    -0.00400
C1717       C  0.41544838  0.77292705  0.79315597    -0.01500
C1718       C  0.40691278  0.75396797  0.78861443     0.08200
C1719       C  0.39946707  0.74994972  0.76901927    -0.01600
C1720       C  0.39985370  0.76502192  0.75438980    -0.01600
C1721       C  0.40768498  0.78421241  0.75920237     0.08300
C1722       C  0.41559496  0.78804227  0.77862773    -0.01800
Br1723     Br  0.42819865  0.81349098  0.78503521    -0.00400
Br1724     Br  0.42906848  0.77763221  0.81858881    -0.00500
Br1725     Br  0.38909673  0.75943224  0.72784335    -0.00400
Br1726     Br  0.38853853  0.72389705  0.76204802    -0.00400
C1727       C  0.39291575  0.72182195  0.91096681    -0.01500
C1728       C  0.41104433  0.72225421  0.90027608     0.08200
C1729       C  0.42936699  0.72409574  0.91086608    -0.01600
C1730       C  0.42972299  0.72341773  0.93196496    -0.01600
C1731       C  0.41176038  0.72091927  0.94263463     0.08300
C1732       C  0.39326635  0.72135030  0.93215844    -0.01800
Br1733     Br  0.36848387  0.71968459  0.94662982    -0.00400
Br1734     Br  0.36772225  0.71978031  0.89656860    -0.00500
Br1735     Br  0.45491740  0.72573283  0.94636581    -0.00400
Br1736     Br  0.45404191  0.72730833  0.89636701    -0.00400
C1737       C  0.06543535  0.60817266  0.71184232    -0.01500
C1738       C  0.05495879  0.59221009  0.72059733     0.08200
C1739       C  0.06565001  0.57761099  0.73135007    -0.01600
C1740       C  0.08680342  0.57826458  0.73222133    -0.01600
C1741       C  0.09734554  0.59326103  0.72189216     0.08300
C1742       C  0.08655670  0.60858832  0.71226372    -0.01800
Br1743     Br  0.10074088  0.63000106  0.69931789    -0.00400
Br1744     Br  0.05065906  0.62919540  0.69879524    -0.00500
Br1745     Br  0.10131052  0.55748331  0.74592817    -0.00400
Br1746     Br  0.05134757  0.55569201  0.74324994    -0.00400
C1747       C  0.97415775  0.68957768  0.50444850    -0.01500
C1748       C  0.98571187  0.70321550  0.51615140     0.08200
C1749       C  0.99790519  0.71748773  0.50664506    -0.01600
C1750       C  0.99930489  0.71743459  0.48562948    -0.01600
C1751       C  0.98789387  0.70370617  0.47390190     0.08300
C1752       C  0.97518209  0.68984093  0.48335891    -0.01800
Br1753     Br  0.95844169  0.67177988  0.46755700    -0.00400
Br1754     Br  0.95583084  0.67137451  0.51719724    -0.00500
Br1755     Br  0.01821635  0.73528068  0.47313747    -0.00400
Br1756     Br  0.01341426  0.73679146  0.52224485    -0.00400
C1757       C  0.06363602  0.70636486  0.57146633    -0.01500
C1758       C  0.05156987  0.71584195  0.58604439     0.08200
C1759       C  0.06104320  0.72650510  0.60205824    -0.01600
C1760       C  0.08227420  0.72671991  0.60389078    -0.01600
C1761       C  0.09409350  0.71543102  0.59035937     0.08300
C1762       C  0.08450571  0.70513059  0.57421344    -0.01800
Br1763     Br  0.09962758  0.68868790  0.55570026    -0.00400
Br1764     Br  0.05176354  0.69593337  0.54678592    -0.00500
Br1765     Br  0.09496638  0.74109182  0.62593624    -0.00400
Br1766     Br  0.04512150  0.73987810  0.62211361    -0.00400
C1767       C  0.97865031  0.65590091  0.64188747    -0.01500
C1768       C  0.98950476  0.65342074  0.62393236     0.08200
C1769       C  0.00124569  0.63613209  0.62090420    -0.01600
C1770       C  0.00277542  0.62178699  0.63606543    -0.01600
C1771       C  0.99178887  0.62417467  0.65393064     0.08300
C1772       C  0.97939315  0.64107636  0.65659664    -0.01800
Br1773     Br  0.96239924  0.64366517  0.67985927    -0.00400
Br1774     Br  0.96221687  0.67932600  0.64647110    -0.00500
Br1775     Br  0.02121306  0.59974004  0.63276113    -0.00400
Br1776     Br  0.01636577  0.63246667  0.59654238    -0.00400
C1777       C  0.41703247  0.90538179  0.73853838    -0.01500
C1778       C  0.40449510  0.89454307  0.72501700     0.08200
C1779       C  0.39039835  0.90488002  0.71318509    -0.01600
C1780       C  0.39031554  0.92596462  0.71324321    -0.01600
C1781       C  0.40400504  0.93685046  0.72552630     0.08300
C1782       C  0.41659265  0.92652177  0.73896142    -0.01800
Br1783     Br  0.43462166  0.94129122  0.75658162    -0.00400
Br1784     Br  0.43631003  0.89146881  0.75496415    -0.00500
Br1785     Br  0.37168184  0.94000361  0.69613145    -0.00400
Br1786     Br  0.37112887  0.89008081  0.69690697    -0.00400
C1787       C  0.31529892  0.98106214  0.48746387    -0.01500
C1788       C  0.29864036  0.98965328  0.47755515     0.08200
C1789       C  0.28240444  0.99695003  0.48887016    -0.01600
C1790       C  0.28294640  0.99612985  0.50990537    -0.01600
C1791       C  0.29995670  0.98824805  0.51990165     0.08300
C1792       C  0.31597786  0.98050019  0.50857332    -0.01800
Br1793     Br  0.33857631  0.96800778  0.52171640    -0.00400
Br1794     Br  0.33670508  0.96895652  0.47224369    -0.00500
Br1795     Br  0.26051888  0.00688983  0.52470575    -0.00400
Br1796     Br  0.25952151  0.00932165  0.47594815    -0.00400
C1797       C  0.29603412  0.92127159  0.61134061    -0.01500
C1798       C  0.28337298  0.93218243  0.59844037     0.08200
C1799       C  0.26807517  0.92206134  0.58751738    -0.01600
C1800       C  0.26683621  0.90093488  0.58790583    -0.01600
C1801       C  0.28068780  0.88995369  0.59948260     0.08300
C1802       C  0.29449030  0.90026777  0.61207930    -0.01800
Br1803     Br  0.31110431  0.88554500  0.63061550    -0.00400
Br1804     Br  0.31576945  0.93514869  0.62785457    -0.00500
Br1805     Br  0.24727084  0.88706314  0.57128033    -0.00400
Br1806     Br  0.24991522  0.93693423  0.57071633    -0.00400
C1807       C  0.36760536  0.98807260  0.62557736    -0.01500
C1808       C  0.34946692  0.99873530  0.62774325     0.08200
C1809       C  0.34670124  0.01128121  0.64473598    -0.01600
C1810       C  0.36175791  0.01291723  0.65953756    -0.01600
C1811       C  0.37927123  0.00122994  0.65805596     0.08300
C1812       C  0.38231341  0.98904172  0.64089067    -0.01800
Br1813     Br  0.40575732  0.97222736  0.63895488    -0.00400
Br1814     Br  0.37188991  0.97083053  0.60248589    -0.00500
Br1815     Br  0.35849830  0.03182168  0.68155089    -0.00400
Br1816     Br  0.32237896  0.02663158  0.64801371    -0.00400
C1817       C  0.28501889  0.49310560  0.81305052    -0.01500
C1818       C  0.29446422  0.48260220  0.82868811     0.08200
C1819       C  0.30451632  0.49327488  0.84418930    -0.01600
C1820       C  0.30454856  0.51440343  0.84446360    -0.01600
C1821       C  0.29438208  0.52495693  0.82924193     0.08300
C1822       C  0.28496622  0.51422869  0.81331043    -0.01800
Br1823     Br  0.27202160  0.52849683  0.79176625    -0.00400
Br1824     Br  0.27164977  0.47847374  0.79158225    -0.00500
Br1825     Br  0.31703304  0.52874417  0.86668130    -0.00400
Br1826     Br  0.31729136  0.47882015  0.86564962    -0.00400
C1827       C  0.26820106  0.42662310  0.90861643    -0.01500
C1828       C  0.27205943  0.40931859  0.89692862     0.08200
C1829       C  0.27359384  0.39055444  0.90637794    -0.01600
C1830       C  0.27326179  0.38949793  0.92753540    -0.01600
C1831       C  0.27155999  0.40718259  0.93922403     0.08300
C1832       C  0.26824171  0.42561594  0.92966822    -0.01800
Br1833     Br  0.26453790  0.44977302  0.94550708    -0.00400
Br1834     Br  0.26278419  0.45182616  0.89574553    -0.00500
Br1835     Br  0.27724664  0.36414662  0.94050139    -0.00400
Br1836     Br  0.27805266  0.36654148  0.89062232    -0.00400
C1837       C  0.14785225  0.51022691  0.69660629    -0.01500
C1838       C  0.16540459  0.52135952  0.70109928     0.08200
C1839       C  0.18370545  0.51115958  0.70393380    -0.01600
C1840       C  0.18431431  0.48998942  0.70287969    -0.01600
C1841       C  0.16661259  0.47885729  0.69904007     0.08300
C1842       C  0.14848832  0.48911512  0.69545712    -0.01800
Br1843     Br  0.12446592  0.47415518  0.68866845    -0.00400
Br1844     Br  0.12281181  0.52391439  0.69202041    -0.00500
Br1845     Br  0.20909270  0.47621651  0.70838127    -0.00400
Br1846     Br  0.20758314  0.52608632  0.71125401    -0.00400
C1847       C  0.22500279  0.39693208  0.75626729    -0.01500
C1848       C  0.20928694  0.41099919  0.75666840     0.08200
C1849       C  0.20852945  0.42528357  0.77245928    -0.01600
C1850       C  0.22371026  0.42589454  0.78736568    -0.01600
C1851       C  0.23944591  0.41178119  0.78700784     0.08300
C1852       C  0.23991568  0.39718429  0.77146811    -0.01800
Br1853     Br  0.26042535  0.37688718  0.77145479    -0.00400
Br1854     Br  0.22558407  0.37670103  0.73530387    -0.00500
Br1855     Br  0.22367130  0.44714885  0.80738227    -0.00400
Br1856     Br  0.18716805  0.44470279  0.77321068    -0.00400
C1857       C  0.35128783  0.34551430  0.81193741    -0.01500
C1858       C  0.36645053  0.34523956  0.82683555     0.08200
C1859       C  0.36678309  0.36024501  0.84197417    -0.01600
C1860       C  0.35161181  0.37494107  0.84266660    -0.01600
C1861       C  0.33612511  0.37494588  0.82799438     0.08300
C1862       C  0.33621934  0.36029004  0.81248377    -0.01800
Br1863     Br  0.31598193  0.36070438  0.79156554    -0.00400
Br1864     Br  0.35157004  0.32594375  0.79035647    -0.00500
Br1865     Br  0.35118699  0.39392495  0.86480472    -0.00400
Br1866     Br  0.38739692  0.35992600  0.86253956    -0.00400
C1867       C  0.39043594  0.27567917  0.90540793    -0.01500
C1868       C  0.40810663  0.27530630  0.89385586     0.08200
C1869       C  0.42671961  0.27194584  0.90348814    -0.01600
C1870       C  0.42801860  0.27150721  0.92454339    -0.01600
C1871       C  0.41071037  0.27431519  0.93612992     0.08300
C1872       C  0.39181035  0.27539423  0.92656672    -0.01800
Br1873     Br  0.36802436  0.27888228  0.94244626    -0.00400
Br1874     Br  0.36453289  0.27843895  0.89264095    -0.00500
Br1875     Br  0.45367231  0.26784816  0.93768891    -0.00400
Br1876     Br  0.45070209  0.26817502  0.88789413    -0.00400
C1877       C  0.38962908  0.21730342  0.77092171    -0.01500
C1878       C  0.40372713  0.21763006  0.75530064     0.08200
C1879       C  0.41704394  0.23406564  0.75394028    -0.01600
C1880       C  0.41657760  0.24975188  0.76832627    -0.01600
C1881       C  0.40282154  0.24918029  0.78430183     0.08300
C1882       C  0.38922045  0.23295542  0.78539231    -0.01800
Br1883     Br  0.36941435  0.23244915  0.80626580    -0.00400
Br1884     Br  0.37017860  0.19586107  0.77199989    -0.00500
Br1885     Br  0.43599392  0.27124155  0.76675353    -0.00400
Br1886     Br  0.43705738  0.23459424  0.73317110    -0.00400
C1887       C  0.40618472  0.09220008  0.70301940    -0.01500
C1888       C  0.40586331  0.10352383  0.72107225     0.08200
C1889       C  0.40477257  0.09339397  0.73956173    -0.01600
C1890       C  0.40610948  0.07219148  0.73998047    -0.01600
C1891       C  0.40831828  0.06114787  0.72190964     0.08300
C1892       C  0.40751807  0.07125088  0.70344505    -0.01800
Br1893     Br  0.40799860  0.05641985  0.67825356    -0.00400
Br1894     Br  0.40402529  0.10524233  0.67732430    -0.00500
Br1895     Br  0.40624779  0.05845826  0.76523053    -0.00400
Br1896     Br  0.40231465  0.10838040  0.76436109    -0.00400
C1897       C  0.30897051  0.15875609  0.50708167    -0.01500
C1898       C  0.29326546  0.16786855  0.51797498     0.08200
C1899       C  0.27736232  0.17689652  0.50721146    -0.01600
C1900       C  0.27732534  0.17714247  0.48600489    -0.01600
C1901       C  0.29299425  0.16794845  0.47515434     0.08300
C1902       C  0.30878488  0.15877095  0.48584187    -0.01800
Br1903     Br  0.32944944  0.14460703  0.47142444    -0.00400
Br1904     Br  0.32978483  0.14442669  0.52108998    -0.00500
Br1905     Br  0.25601428  0.19078741  0.47187938    -0.00400
Br1906     Br  0.25537403  0.18922684  0.52131563    -0.00400
C1907       C  0.33831361  0.15262686  0.64604652    -0.01500
C1908       C  0.33710380  0.16805939  0.63174309     0.08200
C1909       C  0.35068313  0.18436605  0.63337718    -0.01600
C1910       C  0.36559214  0.18486766  0.64867290    -0.01600
C1911       C  0.36669474  0.16944911  0.66291786     0.08300
C1912       C  0.35280984  0.15343964  0.66163656    -0.01800
Br1913     Br  0.35407384  0.13202274  0.68084315    -0.00400
Br1914     Br  0.32074911  0.12960684  0.64399191    -0.00500
Br1915     Br  0.38379974  0.20736332  0.65080947    -0.00400
Br1916     Br  0.34784267  0.20690041  0.61579482    -0.00400
C1917       C  0.27614582  0.06630731  0.60418705    -0.01500
C1918       C  0.28034655  0.05553301  0.58634205     0.08200
C1919       C  0.28222095  0.06605764  0.56819928    -0.01600
C1920       C  0.28134849  0.08709477  0.56813284    -0.01600
C1921       C  0.27956266  0.09795550  0.58630795     0.08300
C1922       C  0.27612964  0.08751027  0.60425860    -0.01800
Br1923     Br  0.27318906  0.10209435  0.62924322    -0.00400
Br1924     Br  0.27190623  0.05221525  0.62883283    -0.00500
Br1925     Br  0.28221093  0.10105782  0.54290970    -0.00400
Br1926     Br  0.28645399  0.05173471  0.54323879    -0.00400
C1927       C  0.17300243  0.27040184  0.51312904    -0.01500
C1928       C  0.16932424  0.28810472  0.52439050     0.08200
C1929       C  0.16710475  0.30641099  0.51414947    -0.01600
C1930       C  0.16774738  0.30680923  0.49292859    -0.01600
C1931       C  0.17101087  0.28903051  0.48169054     0.08300
C1932       C  0.17380361  0.27083946  0.49198165    -0.01800
Br1933     Br  0.17950284  0.24639504  0.47725300    -0.00400
Br1934     Br  0.17812097  0.24542580  0.52662558    -0.00500
Br1935     Br  0.16246212  0.33157691  0.47924854    -0.00400
Br1936     Br  0.16208276  0.33089554  0.52896750    -0.00400
C1937       C  0.23026265  0.24030715  0.58180024    -0.01500
C1938       C  0.21466405  0.23890515  0.59605829     0.08200
C1939       C  0.21502960  0.22298628  0.60980079    -0.01600
C1940       C  0.22998282  0.20805569  0.60866674    -0.01600
C1941       C  0.24535946  0.20939801  0.59427560     0.08300
C1942       C  0.24553716  0.22576976  0.58113211    -0.01800
Br1943     Br  0.26595185  0.22773477  0.56082550    -0.00400
Br1944     Br  0.23030821  0.26124106  0.56204733    -0.00500
Br1945     Br  0.22962922  0.18605901  0.62718018    -0.00400
Br1946     Br  0.19581774  0.22209248  0.63124292    -0.00400
C1947       C  0.16483909  0.32825717  0.65486960    -0.01500
C1948       C  0.17263610  0.33100145  0.63544260     0.08200
C1949       C  0.18123268  0.34979229  0.63081323    -0.01600
C1950       C  0.18109724  0.36581363  0.64500387    -0.01600
C1951       C  0.17258355  0.36332904  0.66418364     0.08300
C1952       C  0.16496188  0.34415233  0.66915133    -0.01800
Br1953     Br  0.15351313  0.33943779  0.69518598    -0.00400
Br1954     Br  0.15252637  0.30303496  0.66188425    -0.00500
Br1955     Br  0.19367036  0.39090832  0.63823157    -0.00400
Br1956     Br  0.19424475  0.35343010  0.60535408    -0.00400
C1957       C  0.00733253  0.48413566  0.68240160    -0.01500
C1958       C  0.99442875  0.47365845  0.69524473     0.08200
C1959       C  0.98085057  0.48426583  0.70742893    -0.01600
C1960       C  0.98110062  0.50527207  0.70786219    -0.01600
C1961       C  0.99464106  0.51581199  0.69571503     0.08300
C1962       C  0.00741916  0.50521608  0.68263021    -0.01800
Br1963     Br  0.02607904  0.51939448  0.66593920    -0.00400
Br1964     Br  0.02566725  0.46980349  0.66522418    -0.00500
Br1965     Br  0.96225028  0.51941959  0.72469927    -0.00400
Br1966     Br  0.96094919  0.47008025  0.72273275    -0.00400
C1967       C  0.06885032  0.38825105  0.71256668    -0.01500
C1968       C  0.05799845  0.40497568  0.71955040     0.08200
C1969       C  0.06836936  0.42186885  0.72729130    -0.01600
C1970       C  0.08950403  0.42246047  0.72699310    -0.01600
C1971       C  0.10031520  0.40606057  0.71916202     0.08300
C1972       C  0.08995739  0.38875869  0.71246147    -0.01800
Br1973     Br  0.10469648  0.36627944  0.70190389    -0.00400
Br1974     Br  0.05463105  0.36513055  0.70193962    -0.00500
Br1975     Br  0.10364347  0.44627796  0.73592942    -0.00400
Br1976     Br  0.05349948  0.44478408  0.73675366    -0.00400
C1977       C  0.00979666  0.27276263  0.50976987    -0.01500
C1978       C  0.99618448  0.28411637  0.52122906     0.08200
C1979       C  0.98166456  0.29598541  0.51144010    -0.01600
C1980       C  0.98127372  0.29697008  0.49035550    -0.01600
C1981       C  0.99528746  0.28609235  0.47894770     0.08300
C1982       C  0.00913072  0.27342628  0.48869685    -0.01800
Br1983     Br  0.02755813  0.25713862  0.47346259    -0.00400
Br1984     Br  0.03036500  0.25714224  0.52282003    -0.00500
Br1985     Br  0.96040845  0.31199787  0.47705928    -0.00400
Br1986     Br  0.96152437  0.31001892  0.52670528    -0.00400
C1987       C  0.06989303  0.25264801  0.58759456    -0.01500
C1988       C  0.05861198  0.26607133  0.59934795     0.08200
C1989       C  0.06854940  0.27905563  0.61307210    -0.01600
C1990       C  0.08964717  0.28013063  0.61354459    -0.01600
C1991       C  0.10104933  0.26812496  0.60031878     0.08300
C1992       C  0.09107227  0.25366495  0.58801863    -0.01800
Br1993     Br  0.10609638  0.23658903  0.57016175    -0.00400
Br1994     Br  0.05621942  0.23402329  0.56973878    -0.00500
Br1995     Br  0.10282948  0.29821591  0.63234453    -0.00400
Br1996     Br  0.05301826  0.29559962  0.63109142    -0.00400
C1997       C  0.98264005  0.32853421  0.64679545    -0.01500
C1998       C  0.99562506  0.32868215  0.63023224     0.08200
C1999       C  0.00939345  0.34462336  0.62811965    -0.01600
C2000       C  0.00957804  0.36067904  0.64200681    -0.01600
C2001       C  0.99620929  0.36075911  0.65822739     0.08300
C2002       C  0.98291932  0.34451005  0.66075881    -0.01800
Br2003     Br  0.96433191  0.34436433  0.68282533    -0.00400
Br2004     Br  0.96376458  0.30693860  0.65020235    -0.00500
Br2005     Br  0.02906384  0.38196592  0.63938889    -0.00400
Br2006     Br  0.02911154  0.34388815  0.60710272    -0.00400
C2007       C  0.68873074  0.18577117  0.50690221    -0.01500
C2008       C  0.69252783  0.16817730  0.51779414     0.08200
C2009       C  0.69549492  0.14992853  0.50728551    -0.01600
C2010       C  0.69440515  0.14918830  0.48620639    -0.01600
C2011       C  0.69224728  0.16699320  0.47520377     0.08300
C2012       C  0.68894104  0.18527066  0.48568456    -0.01800
Br2013     Br  0.68627738  0.21005451  0.47134428    -0.00400
Br2014     Br  0.68543968  0.21100962  0.52102224    -0.00500
Br2015     Br  0.69493822  0.12342911  0.47253302    -0.00400
Br2016     Br  0.70187335  0.12575165  0.52147828    -0.00400
C2017       C  0.48635395  0.17174274  0.68723861    -0.01500
C2018       C  0.47629150  0.17709534  0.70508919     0.08200
C2019       C  0.48758129  0.18419576  0.72183359    -0.01600
C2020       C  0.50861082  0.18540232  0.72089790    -0.01600
C2021       C  0.51873221  0.17853851  0.70366822     0.08300
C2022       C  0.50752716  0.17210387  0.68665729    -0.01800
Br2023     Br  0.52112041  0.16211147  0.66316607    -0.00400
Br2024     Br  0.47136302  0.16231840  0.66400231    -0.00500
Br2025     Br  0.52359282  0.19713459  0.74316819    -0.00400
Br2026     Br  0.47443476  0.19241779  0.74627970    -0.00400
C2027       C  0.63828092  0.15813020  0.65593112    -0.01500
C2028       C  0.62738407  0.17567204  0.66041011     0.08200
C2029       C  0.63096454  0.19320922  0.64938663    -0.01600
C2030       C  0.64588115  0.19339862  0.63450576    -0.01600
C2031       C  0.65680697  0.17586216  0.63008941     0.08300
C2032       C  0.65282482  0.15818254  0.64077345    -0.01800
Br2033     Br  0.66663363  0.13361205  0.63406380    -0.00400
Br2034     Br  0.63248479  0.13358969  0.66982639    -0.00500
Br2035     Br  0.65237100  0.21802392  0.62119948    -0.00400
Br2036     Br  0.61590705  0.21717665  0.65511348    -0.00400
C2037       C  0.84815437  0.29754058  0.50749106    -0.01500
C2038       C  0.83085865  0.29042933  0.51712320     0.08200
C2039       C  0.81431575  0.28362505  0.50551972    -0.01600
C2040       C  0.81495111  0.28417666  0.48441553    -0.01600
C2041       C  0.83231066  0.29112224  0.47474935     0.08300
C2042       C  0.84899874  0.29758916  0.48635675    -0.01800
Br2043     Br  0.87313026  0.30634557  0.47334456    -0.00400
Br2044     Br  0.87121661  0.30601726  0.52323217    -0.00500
Br2045     Br  0.79254036  0.27387306  0.46875396    -0.00400
Br2046     Br  0.79070793  0.27346478  0.51853275    -0.00400
C2047       C  0.78433714  0.22270207  0.58379111    -0.01500
C2048       C  0.78041473  0.24307138  0.58821229     0.08200
C2049       C  0.76061021  0.24904862  0.59247640    -0.01600
C2050       C  0.74498741  0.23472799  0.59277415    -0.01600
C2051       C  0.74900612  0.21428042  0.58872882     0.08300
C2052       C  0.76877116  0.20838719  0.58415006    -0.01800
Br2053     Br  0.77450889  0.18093792  0.57659306    -0.00400
Br2054     Br  0.81070446  0.21454397  0.57519310    -0.00500
Br2055     Br  0.71815683  0.24321602  0.59933980    -0.00400
Br2056     Br  0.75473997  0.27682518  0.59830242    -0.00400
C2057       C  0.90334492  0.25885770  0.57001045    -0.01500
C2058       C  0.89266555  0.26358940  0.58758393     0.08200
C2059       C  0.90281287  0.26417197  0.60626284    -0.01600
C2060       C  0.92378172  0.26172068  0.60708481    -0.01600
C2061       C  0.93468865  0.25945970  0.58925373     0.08300
C2062       C  0.92434427  0.25693940  0.57083869    -0.01800
Br2063     Br  0.93921300  0.25184348  0.54663929    -0.00400
Br2064     Br  0.88923889  0.25565595  0.54471813    -0.00500
Br2065     Br  0.93783926  0.26288968  0.63243106    -0.00400
Br2066     Br  0.88844833  0.27085397  0.63038622    -0.00400
C2067       C  0.50625952  0.32092234  0.82726641    -0.01500
C2068       C  0.51717290  0.30285057  0.82714121     0.08200
C2069       C  0.50671712  0.28441009  0.82680209    -0.01600
C2070       C  0.48560837  0.28400150  0.82667284    -0.01600
C2071       C  0.47460153  0.30207489  0.82651313     0.08300
C2072       C  0.48506270  0.32054385  0.82667250    -0.01800
Br2073     Br  0.47045180  0.34536708  0.82495785    -0.00400
Br2074     Br  0.52032567  0.34622025  0.82760620    -0.00500
Br2075     Br  0.47201140  0.25841611  0.82822662    -0.00400
Br2076     Br  0.52131231  0.25944848  0.82795833    -0.00400
C2077       C  0.60269393  0.23411948  0.78684643    -0.01500
C2078       C  0.58968801  0.25061215  0.78486589     0.08200
C2079       C  0.57725837  0.25191137  0.76766507    -0.01600
C2080       C  0.57797641  0.23701852  0.75246539    -0.01600
C2081       C  0.59081337  0.22030203  0.75451653     0.08300
C2082       C  0.60314099  0.21894686  0.77185774    -0.01800
Br2083     Br  0.62121924  0.19666440  0.77501207    -0.00400
Br2084     Br  0.62046809  0.23263579  0.80984280    -0.00500
Br2085     Br  0.56008092  0.23911214  0.72955566    -0.00400
Br2086     Br  0.55780984  0.27320297  0.76564741    -0.00400
C2087       C  0.60611811  0.27421738  0.90389544    -0.01500
C2088       C  0.58763527  0.27325104  0.89335189     0.08200
C2089       C  0.57002569  0.26832206  0.90374491    -0.01600
C2090       C  0.57045690  0.26681794  0.92477125    -0.01600
C2091       C  0.58848692  0.27007254  0.93551848     0.08300
C2092       C  0.60650483  0.27273633  0.92500371    -0.01800
Br2093     Br  0.63132741  0.27687967  0.93967171    -0.00400
Br2094     Br  0.63064537  0.27970460  0.88988433    -0.00500
Br2095     Br  0.54611938  0.26135338  0.93911139    -0.00400
Br2096     Br  0.54515523  0.26401758  0.88918523    -0.00400
C2097       C  0.65458153  0.36358706  0.84678598    -0.01500
C2098       C  0.65754528  0.37502079  0.82935448     0.08200
C2099       C  0.64438756  0.37224397  0.81277869    -0.01600
C2100       C  0.62900681  0.35762560  0.81330105    -0.01600
C2101       C  0.62665053  0.34555622  0.83037616     0.08300
C2102       C  0.63935332  0.34887100  0.84723923    -0.01800
Br2103     Br  0.63551905  0.33381767  0.87147087    -0.00400
Br2104     Br  0.67069872  0.36873986  0.87063040    -0.00500
Br2105     Br  0.61211557  0.35324202  0.78994035    -0.00400
Br2106     Br  0.64814332  0.38751240  0.78872956    -0.00400
C2107       C  0.73036740  0.39367124  0.90106497    -0.01500
C2108       C  0.72896017  0.41257286  0.89184818     0.08200
C2109       C  0.73098302  0.43014702  0.90371608    -0.01600
C2110       C  0.73254887  0.42890004  0.92469213    -0.01600
C2111       C  0.73159126  0.41015347  0.93402182     0.08300
C2112       C  0.73154006  0.39248776  0.92218996    -0.01800
Br2113     Br  0.73095273  0.36677390  0.93498331    -0.00400
Br2114     Br  0.72833361  0.36937724  0.88508966    -0.00500
Br2115     Br  0.73493914  0.45299787  0.94097562    -0.00400
Br2116     Br  0.73087294  0.45609915  0.89145812    -0.00400
C2117       C  0.81175990  0.34600169  0.65843331    -0.01500
C2118       C  0.82017286  0.36513511  0.65530382     0.08200
C2119       C  0.82966821  0.36909192  0.63690446    -0.01600
C2120       C  0.83104966  0.35392070  0.62198198    -0.01600
C2121       C  0.82321546  0.33459449  0.62543513     0.08300
C2122       C  0.81341116  0.33079307  0.64366339    -0.01800
Br2123     Br  0.80171326  0.30477335  0.64833014    -0.00400
Br2124     Br  0.79734386  0.34065524  0.68278515    -0.00500
Br2125     Br  0.84510803  0.35927905  0.59745720    -0.00400
Br2126     Br  0.84237162  0.39473241  0.63266039    -0.00400
C2127       C  0.78512933  0.41015567  0.76955889    -0.01500
C2128       C  0.78094286  0.40003830  0.75122680     0.08200
C2129       C  0.76223369  0.39035896  0.74837186    -0.01600
C2130       C  0.74755687  0.39145197  0.76346792    -0.01600
C2131       C  0.75160746  0.40202354  0.78157909     0.08300
C2132       C  0.77058536  0.41110687  0.78464268    -0.01800
Br2133     Br  0.77629137  0.42653595  0.80886964    -0.00400
Br2134     Br  0.81020402  0.42439453  0.77364080    -0.00500
Br2135     Br  0.72215593  0.37798417  0.75949399    -0.00400
Br2136     Br  0.75701248  0.37497524  0.72409792    -0.00400
C2137       C  0.90014218  0.39556775  0.69497300    -0.01500
C2138       C  0.88976633  0.40195503  0.71219986     0.08200
C2139       C  0.90063414  0.40669637  0.72995939    -0.01600
C2140       C  0.92184213  0.40699937  0.72985630    -0.01600
C2141       C  0.93220709  0.40214206  0.71206580     0.08300
C2142       C  0.92117972  0.39584621  0.69481523    -0.01800
Br2143     Br  0.93465650  0.38772944  0.67046604    -0.00400
Br2144     Br  0.88548506  0.38566700  0.67162120    -0.00500
Br2145     Br  0.93643753  0.41602302  0.75344623    -0.00400
Br2146     Br  0.88655225  0.41385153  0.75413684    -0.00400
C2147       C  0.49325452  0.97893538  0.70147734    -0.01500
C2148       C  0.48253939  0.99314863  0.71290529     0.08200
C2149       C  0.49292742  0.00702956  0.72535636    -0.01600
C2150       C  0.51396764  0.00714541  0.72589294    -0.01600
C2151       C  0.52470019  0.99396207  0.71324712     0.08300
C2152       C  0.51432699  0.97937211  0.70163620    -0.01800
Br2153     Br  0.52900197  0.95902420  0.68711674    -0.00400
Br2154     Br  0.47912563  0.95833599  0.68632771    -0.00500
Br2155     Br  0.52777863  0.02576363  0.74373939    -0.00400
Br2156     Br  0.47845917  0.02703828  0.74061620    -0.00400
C2157       C  0.57042782  0.07562756  0.71634121    -0.01500
C2158       C  0.58847548  0.06543724  0.72068457     0.08200
C2159       C  0.60565436  0.07667073  0.72640185    -0.01600
C2160       C  0.60515029  0.09787049  0.72633583    -0.01600
C2161       C  0.58736914  0.10793880  0.72079561     0.08300
C2162       C  0.56975410  0.09668343  0.71702386    -0.01800
Br2163     Br  0.54429528  0.11012605  0.71368807    -0.00400
Br2164     Br  0.54637867  0.06097109  0.70897838    -0.00500
Br2165     Br  0.62922058  0.11290031  0.73263676    -0.00400
Br2166     Br  0.63043294  0.06313316  0.73244624    -0.00400
C2167       C  0.68585021  0.98844409  0.48392260    -0.01500
C2168       C  0.69904266  0.00194222  0.47462170     0.08200
C2169       C  0.71147956  0.01462261  0.48640870    -0.01600
C2170       C  0.71086715  0.01378665  0.50740631    -0.01600
C2171       C  0.69781861  0.00016562  0.51676711     0.08300
C2172       C  0.68519378  0.98759840  0.50497944    -0.01800
Br2173     Br  0.66809415  0.96807537  0.51746608    -0.00400
Br2174     Br  0.66987155  0.96983005  0.46794262    -0.00500
Br2175     Br  0.72764205  0.03193751  0.52314579    -0.00400
Br2176     Br  0.72909525  0.03363634  0.47391303    -0.00400
C2177       C  0.69665267  0.07232068  0.56989306    -0.01500
C2178       C  0.71011017  0.06199465  0.58252636     0.08200
C2179       C  0.72310268  0.07302710  0.59540249    -0.01600
C2180       C  0.72214034  0.09418587  0.59602562    -0.01600
C2181       C  0.70735259  0.10433224  0.58468253     0.08300
C2182       C  0.69418113  0.09307959  0.57206683    -0.01800
Br2183     Br  0.67189644  0.10531431  0.55806720    -0.00400
Br2184     Br  0.68233481  0.05828404  0.54841530    -0.00500
Br2185     Br  0.73991368  0.10893742  0.61395011    -0.00400
Br2186     Br  0.74146805  0.05932554  0.61299569    -0.00400
C2187       C  0.65676126  0.01469336  0.64095424    -0.01500
C2188       C  0.65779872  0.99744333  0.62856627     0.08200
C2189       C  0.64519530  0.98090805  0.63199677    -0.01600
C2190       C  0.63138102  0.98170159  0.64774205    -0.01600
C2191       C  0.63028152  0.99900041  0.66007209     0.08300
C2192       C  0.64310464  0.01541403  0.65680092    -0.01800
Br2193     Br  0.64143446  0.03923240  0.67352236    -0.00400
Br2194     Br  0.67332299  0.03779721  0.63560907    -0.00500
Br2195     Br  0.61478214  0.95866313  0.65306719    -0.00400
Br2196     Br  0.64761701  0.95682119  0.61581010    -0.00400
C2197       C  0.70953771  0.81250674  0.50983089    -0.01500
C2198       C  0.69728864  0.82614132  0.52037460     0.08200
C2199       C  0.68479271  0.83930481  0.50959495    -0.01600
C2200       C  0.68537519  0.83954573  0.48843495    -0.01600
C2201       C  0.69819123  0.82639330  0.47794339     0.08300
C2202       C  0.70990564  0.81254149  0.48872000    -0.01800
Br2203     Br  0.72640100  0.79337806  0.47459458    -0.00400
Br2204     Br  0.72583311  0.79355645  0.52431708    -0.00500
Br2205     Br  0.67012366  0.85935864  0.47403450    -0.00400
Br2206     Br  0.66818102  0.85826386  0.52377969    -0.00400
C2207       C  0.72339054  0.90545220  0.56951580    -0.01500
C2208       C  0.72095029  0.89555818  0.58787741     0.08200
C2209       C  0.72095371  0.90674177  0.60601016    -0.01600
C2210       C  0.72139740  0.92786498  0.60557020    -0.01600
C2211       C  0.72186258  0.93771140  0.58702280     0.08300
C2212       C  0.72376129  0.92648534  0.56909167    -0.01800
Br2213     Br  0.72574790  0.94009916  0.54378681    -0.00400
Br2214     Br  0.72578617  0.89016069  0.54484338    -0.00500
Br2215     Br  0.71914924  0.94331117  0.63012052    -0.00400
Br2216     Br  0.71823457  0.89326948  0.63124520    -0.00400
C2217       C  0.80174476  0.69293790  0.50590635    -0.01500
C2218       C  0.81965497  0.69410075  0.51737448     0.08200
C2219       C  0.83825587  0.69445295  0.50744438    -0.01600
C2220       C  0.83886724  0.69463967  0.48632378    -0.01600
C2221       C  0.82094243  0.69477734  0.47488490     0.08300
C2222       C  0.80237269  0.69326612  0.48472890    -0.01800
Br2223     Br  0.77767878  0.69318843  0.46939206    -0.00400
Br2224     Br  0.77614572  0.69269916  0.51912694    -0.00500
Br2225     Br  0.86446144  0.69409766  0.47299560    -0.00400
Br2226     Br  0.86306351  0.69433799  0.52269118    -0.00400
C2227       C  0.77927355  0.76887044  0.57775003    -0.01500
C2228       C  0.77546768  0.75109151  0.58833696     0.08200
C2229       C  0.75786202  0.74952371  0.59980605    -0.01600
C2230       C  0.74435811  0.76569492  0.60088246    -0.01600
C2231       C  0.74808569  0.78335855  0.59014399     0.08300
C2232       C  0.76563674  0.78490301  0.57861286    -0.01800
Br2233     Br  0.77054093  0.80849893  0.56286794    -0.00400
Br2234     Br  0.80244176  0.77087295  0.56071901    -0.00500
Br2235     Br  0.72130989  0.76405179  0.61804628    -0.00400
Br2236     Br  0.75241023  0.72550613  0.61463796    -0.00400
C2237       C  0.89336529  0.69109906  0.60055588    -0.01500
C2238       C  0.88255475  0.70832770  0.59515271     0.08200
C2239       C  0.89302384  0.72632859  0.59141013    -0.01600
C2240       C  0.91419493  0.72652095  0.59124233    -0.01600
C2241       C  0.92497449  0.70872224  0.59466009     0.08300
C2242       C  0.91441938  0.69117401  0.60006850    -0.01800
Br2243     Br  0.92852761  0.66680028  0.60647904    -0.00400
Br2244     Br  0.87932047  0.66722892  0.60890840    -0.00500
Br2245     Br  0.92816913  0.75074991  0.58425008    -0.00400
Br2246     Br  0.87855244  0.75033800  0.58468640    -0.00400
C2247       C  0.51176231  0.82748236  0.72660176    -0.01500
C2248       C  0.52215716  0.83055047  0.70851247     0.08200
C2249       C  0.51110021  0.83200074  0.69037055    -0.01600
C2250       C  0.48990787  0.83098401  0.69040019    -0.01600
C2251       C  0.47952514  0.82880976  0.70862665     0.08300
C2252       C  0.49064998  0.82644506  0.72662125    -0.01800
Br2253     Br  0.47710329  0.82032158  0.75132473    -0.00400
Br2254     Br  0.52636033  0.82386171  0.75153170    -0.00500
Br2255     Br  0.47522407  0.83341806  0.66543990    -0.00400
Br2256     Br  0.52480561  0.83690986  0.66556320    -0.00400
C2257       C  0.64696262  0.81605787  0.66414597    -0.01500
C2258       C  0.63035838  0.82912023  0.66291394     0.08200
C2259       C  0.62836788  0.84165886  0.64610128    -0.01600
C2260       C  0.64265088  0.84100226  0.63065408    -0.01600
C2261       C  0.65912710  0.82787242  0.63183264     0.08300
C2262       C  0.66122307  0.81539784  0.64864737    -0.01800
Br2263     Br  0.68338536  0.79695178  0.65022866    -0.00400
Br2264     Br  0.65018543  0.79871637  0.68691201    -0.00500
Br2265     Br  0.64053331  0.85943675  0.60864714    -0.00400
Br2266     Br  0.60718880  0.86125482  0.64502920    -0.00400
C2267       C  0.58526466  0.90934118  0.73696116    -0.01500
C2268       C  0.59991099  0.89824683  0.72664974     0.08200
C2269       C  0.61615176  0.90820886  0.71781513    -0.01600
C2270       C  0.61666543  0.92932321  0.71762716    -0.01600
C2271       C  0.60129762  0.94045945  0.72686846     0.08300
C2272       C  0.58598589  0.93042099  0.73712737    -0.01800
Br2273     Br  0.56471144  0.94559233  0.74937919    -0.00400
Br2274     Br  0.56358271  0.89553532  0.74986423    -0.00500
Br2275     Br  0.63741286  0.94302237  0.70322123    -0.00400
Br2276     Br  0.63675026  0.89288436  0.70460038    -0.00400
C2277       C  0.48680144  0.71674889  0.81516703    -0.01500
C2278       C  0.47696048  0.70398453  0.82863642     0.08200
C2279       C  0.48838638  0.69105993  0.84075424    -0.01600
C2280       C  0.50952652  0.69134670  0.83989776    -0.01600
C2281       C  0.51941420  0.70455893  0.82683826     0.08300
C2282       C  0.50788935  0.71679790  0.81404866    -0.01800
Br2283     Br  0.52094903  0.73331434  0.79450150    -0.00400
Br2284     Br  0.47140570  0.73440617  0.79826284    -0.00500
Br2285     Br  0.52478927  0.67480583  0.85797690    -0.00400
Br2286     Br  0.47514161  0.67445982  0.86008516    -0.00400
C2287       C  0.60582885  0.77541429  0.78981318    -0.01500
C2288       C  0.59451463  0.75764258  0.78674376     0.08200
C2289       C  0.58414977  0.75464088  0.76828692    -0.01600
C2290       C  0.58392754  0.76979139  0.75376723    -0.01600
C2291       C  0.59471734  0.78782416  0.75711596     0.08300
C2292       C  0.60597882  0.79038409  0.77506139    -0.01800
Br2293     Br  0.62219424  0.81415902  0.77932034    -0.00400
Br2294     Br  0.62207669  0.77899032  0.81378981    -0.00500
Br2295     Br  0.56708146  0.76634299  0.73012831    -0.00400
Br2296     Br  0.56916272  0.73024405  0.76291794    -0.00400
C2297       C  0.56670400  0.72513008  0.90942913    -0.01500
C2298       C  0.58488896  0.72747943  0.89909755     0.08200
C2299       C  0.60268417  0.73170575  0.91008528    -0.01600
C2300       C  0.60257323  0.73163668  0.93128652    -0.01600
C2301       C  0.58476876  0.72703664  0.94148856     0.08300
C2302       C  0.56665845  0.72489579  0.93052096    -0.01800
Br2303     Br  0.54169138  0.72139493  0.94449529    -0.00400
Br2304     Br  0.54170781  0.72207080  0.89471826    -0.00500
Br2305     Br  0.62715581  0.73613431  0.94620104    -0.00400
Br2306     Br  0.62762772  0.73547859  0.89626341    -0.00400
C2307       C  0.80239675  0.48471177  0.69615067    -0.01500
C2308       C  0.82018265  0.47469494  0.70174556     0.08200
C2309       C  0.83706085  0.48603464  0.70798586    -0.01600
C2310       C  0.83602270  0.50707073  0.70936198    -0.01600
C2311       C  0.81846235  0.51723077  0.70325204     0.08300
C2312       C  0.80164879  0.50591079  0.69660025    -0.01800
Br2313     Br  0.77700222  0.51931299  0.68969404    -0.00400
Br2314     Br  0.77861950  0.46942539  0.68928457    -0.00500
Br2315     Br  0.85899741  0.52172266  0.71969846    -0.00400
Br2316     Br  0.86221111  0.47281054  0.71365239    -0.00400
C2317       C  0.79971105  0.64357131  0.66035058    -0.01500
C2318       C  0.80989028  0.62530328  0.65729838     0.08200
C2319       C  0.81894795  0.62138964  0.63859788    -0.01600
C2320       C  0.81861175  0.63596260  0.62345927    -0.01600
C2321       C  0.80904958  0.65456974  0.62678822     0.08300
C2322       C  0.79927198  0.65812629  0.64520104    -0.01800
Br2323     Br  0.78484576  0.68280372  0.64967037    -0.00400
Br2324     Br  0.78583689  0.64851483  0.68516453    -0.00500
Br2325     Br  0.83302162  0.63092399  0.59890822    -0.00400
Br2326     Br  0.83337653  0.59670769  0.63417110    -0.00400
C2327       C  0.89702392  0.56990100  0.69904717    -0.01500
C2328       C  0.88694597  0.58510056  0.70985443     0.08200
C2329       C  0.89829473  0.59886409  0.72177097    -0.01600
C2330       C  0.91945781  0.59750873  0.72265158    -0.01600
C2331       C  0.92949469  0.58264266  0.71138353     0.08300
C2332       C  0.91802753  0.56843451  0.70010629    -0.01800
Br2333     Br  0.93086431  0.54612609  0.68657436    -0.00400
Br2334     Br  0.88233556  0.55065551  0.68248721    -0.00500
Br2335     Br  0.93459028  0.61674107  0.73860253    -0.00400
Br2336     Br  0.88514187  0.62087264  0.73523743    -0.00400
C2337       C  0.69242201  0.51385085  0.81350608    -0.01500
C2338       C  0.70623021  0.52509066  0.82544239     0.08200
C2339       C  0.72134383  0.51472138  0.83617934    -0.01600
C2340       C  0.72292133  0.49369332  0.83453963    -0.01600
C2341       C  0.70816278  0.48236720  0.82394056     0.08300
C2342       C  0.69305911  0.49264428  0.81321944    -0.01800
Br2343     Br  0.67404638  0.47775564  0.79674855    -0.00400
Br2344     Br  0.67331564  0.52727753  0.79643626    -0.00500
Br2345     Br  0.74564164  0.48078990  0.84702370    -0.00400
Br2346     Br  0.73922379  0.52879538  0.85473988    -0.00400
C2347       C  0.66133840  0.65258024  0.84261450    -0.01500
C2348       C  0.66066237  0.63767225  0.82725666     0.08200
C2349       C  0.64505879  0.63815513  0.81279051    -0.01600
C2350       C  0.63024101  0.65321392  0.81369357    -0.01600
C2351       C  0.63084608  0.66804139  0.82912210     0.08300
C2352       C  0.64656591  0.66761914  0.84351993    -0.01800
Br2353     Br  0.64744862  0.68683895  0.86555377    -0.00400
Br2354     Br  0.68176999  0.65193624  0.86344979    -0.00500
Br2355     Br  0.60972361  0.65393105  0.79303886    -0.00400
Br2356     Br  0.64443721  0.61880599  0.79096246    -0.00400
C2357       C  0.74998699  0.61106960  0.76968792    -0.01500
C2358       C  0.75225618  0.59878935  0.78663420     0.08200
C2359       C  0.76894172  0.58587130  0.78797118    -0.01600
C2360       C  0.78291742  0.58493252  0.77230966    -0.01600
C2361       C  0.78037860  0.59685126  0.75517637     0.08300
C2362       C  0.76401255  0.61010148  0.75401372    -0.01800
Br2363     Br  0.76098063  0.62714262  0.73108278    -0.00400
Br2364     Br  0.72780637  0.62947246  0.76801582    -0.00500
Br2365     Br  0.80458908  0.56582699  0.77353041    -0.00400
Br2366     Br  0.77177694  0.56787276  0.81027612    -0.00400
C2367       C  0.69305568  0.59913224  0.90774611    -0.01500
C2368       C  0.71094080  0.59539639  0.89724295     0.08200
C2369       C  0.72879720  0.59170542  0.90810710    -0.01600
C2370       C  0.72851024  0.59044357  0.92924651    -0.01600
C2371       C  0.71037231  0.59300302  0.93968830     0.08300
C2372       C  0.69273443  0.59792852  0.92880935    -0.01800
Br2373     Br  0.66783804  0.60331456  0.94251238    -0.00400
Br2374     Br  0.66885029  0.60637380  0.89332841    -0.00500
Br2375     Br  0.75269849  0.58335408  0.94353880    -0.00400
Br2376     Br  0.75342485  0.58674629  0.89401794    -0.00400
loop_ 
_geom_bond_atom_site_label_1 
_geom_bond_atom_site_label_2 
_geom_bond_distance 
_geom_bond_site_symmetry_2 
_ccdc_geom_bond_type 
O1            C4   1.269       .  A
O1           Cd6   2.467       .  S
C2           O11   1.263       .  A
C2            O7   1.268       .  A
C2         C2368   1.484       .  S
O3            C9   1.271       .  A
O3           Cd6   2.505       .  S
C4           O12   1.269       .  A
C4         C2358   1.484       .  S
C5           O10   1.271       .  A
C5            O8   1.263       .  A
C5         C2338   1.499       .  S
Cd6          O13   2.451       .  S
Cd6          O12   2.459       .  S
Cd6          O11   2.437       .  S
Cd6           O7   2.504       .  S
Cd6          O10   2.523       .  S
Cd6           O8   2.436       .  S
C9           O13   1.263       .  A
C9         C2348   1.493       .  S
O14          C17   1.266       .  A
O14         Cd19   2.473       .  S
C15          O24   1.265       .  A
C15          O20   1.265       .  A
C15        C2328   1.491       .  S
O16          C22   1.268       .  A
O16         Cd19   2.527       .  S
C17          O25   1.265       .  A
C17        C2361   1.481       .  S
C18          O23   1.268       .  A
C18          O21   1.266       .  A
C18        C2318   1.488       .  S
Cd19         O26   2.467       .  S
Cd19         O25   2.477       .  S
Cd19         O24   2.455       .  S
Cd19         O20   2.507       .  S
Cd19         O23   2.491       .  S
Cd19         O21   2.471       .  S
C22          O26   1.261       .  A
C22        C2311   1.491       .  S
O27          C30   1.266       .  A
O27         Cd32   2.480       .  S
C28          O37   1.263       .  A
C28          O33   1.266       .  A
C28        C2298   1.483       .  S
O29          C35   1.263       .  A
O29         Cd32   2.462       .  S
C30          O38   1.266       .  A
C30        C2288   1.490       .  S
C31          O36   1.266       .  A
C31          O34   1.267       .  A
C31        C2351   1.494       .  S
Cd32         O39   2.510       .  S
Cd32         O38   2.470       .  S
Cd32         O37   2.444       .  S
Cd32         O33   2.510       .  S
Cd32         O36   2.488       .  S
Cd32         O34   2.475       .  S
C35          O39   1.267       .  A
C35        C2281   1.488       .  S
O40          C43   1.265       .  A
O40         Cd45   2.481       .  S
C41          O50   1.264       .  A
C41          O46   1.267       .  A
C41        C2268   1.474       .  S
O42          C48   1.268       .  A
O42         Cd45   2.502       .  S
C43          O51   1.264       .  A
C43        C2291   1.488       .  S
C44          O49   1.269       .  A
C44          O47   1.263       .  A
C44        C2248   1.493       .  S
Cd45         O52   2.472       .  S
Cd45         O51   2.471       .  S
Cd45         O50   2.441       .  S
Cd45         O46   2.496       .  S
Cd45         O49   2.519       .  S
Cd45         O47   2.462       .  S
C48          O52   1.264       .  A
C48        C2258   1.490       .  S
O53          C56   1.266       .  A
O53         Cd58   2.489       .  S
C54          O63   1.265       .  A
C54          O59   1.265       .  A
C54        C2228   1.484       .  S
O55          C61   1.269       .  A
O55         Cd58   2.501       .  S
C56          O64   1.266       .  A
C56        C2238   1.483       .  S
C57          O62   1.267       .  A
C57          O60   1.264       .  A
C57        C2321   1.489       .  S
Cd58         O65   2.459       .  S
Cd58         O64   2.432       .  S
Cd58         O63   2.483       .  S
Cd58         O59   2.468       .  S
Cd58         O62   2.492       .  S
Cd58         O60   2.469       .  S
C61          O65   1.263       .  A
C61        C2218   1.486       .  S
O66          C69   1.266       .  A
O66         Cd71   2.464       .  S
C67          O76   1.264       .  A
C67          O72   1.266       .  A
C67        C2208   1.477       .  S
O68          C74   1.268       .  A
O68         Cd71   2.503       .  S
C69          O77   1.266       .  A
C69        C2231   1.482       .  S
C70          O75   1.267       .  A
C70          O73   1.264       .  A
C70        C2261   1.486       .  S
Cd71         O78   2.439       .  S
Cd71         O77   2.466       .  S
Cd71         O76   2.443       .  S
Cd71         O72   2.497       .  S
Cd71         O75   2.491       .  S
Cd71         O73   2.479       .  S
C74          O78   1.264       .  A
C74        C2198   1.481       .  S
O79          C82   1.271       .  A
O79         Cd84   2.428       .  S
C80          O89   1.266       .  A
C80          O85   1.271       .  A
C80        C2171   1.472   1_565  S
O81          C87   1.276       .  A
O81         Cd84   2.508   1_545  S
C82          O90   1.269       .  A
C82        C2188   1.465       .  S
C83          O88   1.275       .  A
C83          O86   1.265       .  A
C83        C2211   1.472       .  S
Cd84         O91   2.360   1_565  S
Cd84         O90   2.401       .  S
Cd84         O89   2.393       .  S
Cd84         O85   2.447       .  S
Cd84         O88   2.492       .  S
Cd84         O86   2.372       .  S
C87          O91   1.263       .  A
C87        C2178   1.483       .  S
O92          C95   1.270       .  A
O92         Cd97   2.427   1_565  S
C93         O102   1.266       .  A
C93          O98   1.271       .  A
C93        C2151   1.473       .  S
O94         C100   1.276       .  A
O94         Cd97   2.505   1_565  S
C95         O103   1.269   1_565  A
C95        C2191   1.466       .  S
C96         O101   1.276       .  A
C96          O99   1.265       .  A
C96        C2158   1.489       .  S
Cd97        O104   2.389   1_545  S
Cd97        O103   2.413       .  S
Cd97        O102   2.421   1_545  S
Cd97         O98   2.434   1_545  S
Cd97        O101   2.515       .  S
Cd97         O99   2.415       .  S
C100        O104   1.264       .  A
C100       C2271   1.474       .  S
O105        C108   1.266       .  A
O105       Cd110   2.459       .  S
C106        O115   1.264       .  A
C106        O111   1.267       .  A
C106       C2138   1.483       .  S
O107        C113   1.267       .  A
O107       Cd110   2.500       .  S
C108        O116   1.265       .  A
C108       C2128   1.483       .  S
C109        O114   1.268       .  A
C109        O112   1.265       .  A
C109       C2308   1.487       .  S
Cd110       O117   2.453       .  S
Cd110       O116   2.476       .  S
Cd110       O115   2.440       .  S
Cd110       O111   2.500       .  S
Cd110       O114   2.511       .  S
Cd110       O112   2.450       .  S
C113        O117   1.263       .  A
C113       C2118   1.487       .  S
O118        C121   1.264       .  A
O118       Cd123   2.448       .  S
C119        O128   1.264       .  A
C119        O124   1.264       .  A
C119       C2108   1.482       .  S
O120        C126   1.268       .  A
O120       Cd123   2.511       .  S
C121        O129   1.268       .  A
C121       C2131   1.484       .  S
C122        O127   1.267       .  A
C122        O125   1.263       .  A
C122       C2098   1.492       .  S
Cd123       O130   2.483       .  S
Cd123       O129   2.499       .  S
Cd123       O128   2.458       .  S
Cd123       O124   2.495       .  S
Cd123       O127   2.519       .  S
Cd123       O125   2.470       .  S
C126        O130   1.264       .  A
C126       C2341   1.497       .  S
O131        C134   1.266       .  A
O131       Cd136   2.503       .  S
C132        O141   1.268       .  A
C132        O137   1.266       .  A
C132       C2078   1.486       .  S
O133        C139   1.266       .  A
O133       Cd136   2.514       .  S
C134        O142   1.264       .  A
C134       C2088   1.482       .  S
C135        O140   1.266       .  A
C135        O138   1.262       .  A
C135       C2101   1.492       .  S
Cd136       O143   2.470       .  S
Cd136       O142   2.444       .  S
Cd136       O141   2.481       .  S
Cd136       O137   2.476       .  S
Cd136       O140   2.520       .  S
Cd136       O138   2.480       .  S
C139        O143   1.263       .  A
C139       C2068   1.487       .  S
O144        C147   1.266       .  A
O144       Cd149   2.471       .  S
C145        O154   1.263       .  A
C145        O150   1.266       .  A
C145       C2058   1.479       .  S
O146        C152   1.268       .  A
O146       Cd149   2.481       .  S
C147        O155   1.265       .  A
C147       C2048   1.486       .  S
C148        O153   1.265       .  A
C148        O151   1.263       .  A
C148       C2121   1.487       .  S
Cd149       O156   2.451       .  S
Cd149       O155   2.483       .  S
Cd149       O154   2.455       .  S
Cd149       O150   2.502       .  S
Cd149       O153   2.510       .  S
Cd149       O151   2.474       .  S
C152        O156   1.265       .  A
C152       C2038   1.479       .  S
O157        C160   1.265       .  A
O157       Cd162   2.490       .  S
C158        O167   1.265       .  A
C158        O163   1.268       .  A
C158       C2161   1.488       .  S
O159        C165   1.267       .  A
O159       Cd162   2.517       .  S
C160        O168   1.264       .  A
C160       C2081   1.491       .  S
C161        O166   1.267       .  A
C161        O164   1.266       .  A
C161       C2028   1.484       .  S
Cd162       O169   2.438       .  S
Cd162       O168   2.477       .  S
Cd162       O167   2.440       .  S
Cd162       O163   2.507       .  S
Cd162       O166   2.497       .  S
Cd162       O164   2.469       .  S
C165        O169   1.263       .  A
C165       C2021   1.484       .  S
O170        C173   1.268       .  A
O170       Cd175   2.486       .  S
C171        O180   1.264       .  A
C171        O176   1.268       .  A
C171       C2051   1.487       .  S
O172        C178   1.270       .  A
O172       Cd175   2.502       .  S
C173        O181   1.263       .  A
C173       C2181   1.486       .  S
C174        O179   1.269       .  A
C174        O177   1.266       .  A
C174       C2031   1.484       .  S
Cd175       O182   2.435       .  S
Cd175       O181   2.430       .  S
Cd175       O180   2.460       .  S
Cd175       O176   2.479       .  S
Cd175       O179   2.494       .  S
Cd175       O177   2.456       .  S
C178        O182   1.263       .  A
C178       C2008   1.485       .  S
O183        C186   1.266       .  A
O183       Cd188   2.452       .  S
C184        O193   1.268       .  A
C184        O189   1.268       .  A
C184       C1998   1.477       .  S
O185        C191   1.273       .  A
O185       Cd188   2.525       .  S
C186        O194   1.268       .  A
C186       C1978   1.477       .  S
C187        O192   1.274       .  A
C187        O190   1.263       .  A
C187       C1988   1.482       .  S
Cd188       O195   2.401       .  S
Cd188       O194   2.436       .  S
Cd188       O193   2.442       .  S
Cd188       O189   2.438       .  S
Cd188       O192   2.525   1_655  S
Cd188       O190   2.411   1_655  S
C191        O195   1.262       .  A
C191       C2061   1.476       .  S
O196        C199   1.269       .  A
O196       Cd201   2.435       .  S
C197        O206   1.266       .  A
C197        O202   1.270       .  A
C197       C2001   1.472       .  S
O198        C204   1.276       .  A
O198       Cd201   2.508   1_455  S
C199        O207   1.269       .  A
C199       C1958   1.471       .  S
C200        O205   1.275       .  A
C200        O203   1.263       .  A
C200       C2141   1.487       .  S
Cd201       O208   2.399   1_655  S
Cd201       O207   2.399       .  S
Cd201       O206   2.416       .  S
Cd201       O202   2.434       .  S
Cd201       O205   2.528       .  S
Cd201       O203   2.384       .  S
C204        O208   1.264       .  A
C204       C1968   1.476       .  S
O209        C212   1.272       .  A
O209       Cd214   2.515       .  S
C210        O219   1.264       .  A
C210        O215   1.267       .  A
C210       C1991   1.492       .  S
O211        C217   1.266       .  A
O211       Cd214   2.503       .  S
C212        O220   1.260       .  A
C212       C1938   1.498       .  S
C213        O218   1.265       .  A
C213        O216   1.264       .  A
C213       C1928   1.495       .  S
Cd214       O221   2.492       .  S
Cd214       O220   2.476       .  S
Cd214       O219   2.475       .  S
Cd214       O215   2.526       .  S
Cd214       O218   2.528       .  S
Cd214       O216   2.477       .  S
C217        O221   1.268       .  A
C217       C1948   1.501       .  S
O222        C225   1.263       .  A
O222       Cd227   2.485       .  S
C223        O232   1.265       .  A
C223        O228   1.266       .  A
C223       C1921   1.484       .  S
O224        C230   1.269       .  A
O224       Cd227   2.535       .  S
C225        O233   1.269       .  A
C225       C1941   1.490       .  S
C226        O231   1.269       .  A
C226        O229   1.266       .  A
C226       C1908   1.498       .  S
Cd227       O234   2.475       .  S
Cd227       O233   2.471       .  S
Cd227       O232   2.445       .  S
Cd227       O228   2.501       .  S
Cd227       O231   2.530       .  S
Cd227       O229   2.479       .  S
C230        O234   1.265       .  A
C230       C1898   1.498       .  S
O235        C238   1.269       .  A
O235       Cd240   2.532       .  S
C236        O245   1.264       .  A
C236        O241   1.267       .  A
C236       C1878   1.486       .  S
O237        C243   1.269       .  A
O237       Cd240   2.505       .  S
C238        O246   1.263       .  A
C238       C1888   1.489       .  S
C239        O244   1.268       .  A
C239        O242   1.264       .  A
C239       C1911   1.491       .  S
Cd240       O247   2.455       .  S
Cd240       O246   2.428       .  S
Cd240       O245   2.465       .  S
Cd240       O241   2.490       .  S
Cd240       O244   2.511       .  S
Cd240       O242   2.475       .  S
C243        O247   1.264       .  A
C243       C2018   1.489       .  S
O248        C251   1.267       .  A
O248       Cd253   2.478       .  S
C249        O258   1.263       .  A
C249        O254   1.264       .  A
C249       C1868   1.485       .  S
O250        C256   1.266       .  A
O250       Cd253   2.504       .  S
C251        O259   1.268       .  A
C251       C1881   1.488       .  S
C252        O257   1.265       .  A
C252        O255   1.263       .  A
C252       C1858   1.486       .  S
Cd253       O260   2.470       .  S
Cd253       O259   2.475       .  S
Cd253       O258   2.436       .  S
Cd253       O254   2.524       .  S
Cd253       O257   2.513       .  S
Cd253       O255   2.490       .  S
C256        O260   1.263       .  A
C256       C2071   1.490       .  S
O261        C264   1.267       .  A
O261       Cd266   2.490       .  S
C262        O271   1.264       .  A
C262        O267   1.267       .  A
C262       C1971   1.479       .  S
O263        C269   1.269       .  A
O263       Cd266   2.535       .  S
C264        O272   1.266       .  A
C264       C1848   1.485       .  S
C265        O270   1.269       .  A
C265        O268   1.263       .  A
C265       C1951   1.506       .  S
Cd266       O273   2.455       .  S
Cd266       O272   2.481       .  S
Cd266       O271   2.459       .  S
Cd266       O267   2.504       .  S
Cd266       O270   2.527       .  S
Cd266       O268   2.500       .  S
C269        O273   1.262       .  A
C269       C1841   1.488       .  S
O274        C277   1.265       .  A
O274       Cd279   2.474       .  S
C275        O284   1.264       .  A
C275        O280   1.266       .  A
C275       C1828   1.482       .  S
O276        C282   1.266       .  A
O276       Cd279   2.503       .  S
C277        O285   1.266       .  A
C277       C1851   1.487       .  S
C278        O283   1.267       .  A
C278        O281   1.263       .  A
C278       C1818   1.478       .  S
Cd279       O286   2.482       .  S
Cd279       O285   2.493       .  S
Cd279       O284   2.446       .  S
Cd279       O280   2.505       .  S
Cd279       O283   2.506       .  S
Cd279       O281   2.462       .  S
C282        O286   1.265       .  A
C282       C1861   1.490       .  S
O287        C290   1.271       .  A
O287       Cd292   2.459       .  S
C288        O297   1.267       .  A
C288        O293   1.268       .  A
C288       C1808   1.478       .  S
O289        C295   1.274       .  A
O289       Cd292   2.542   1_545  S
C290        O298   1.262       .  A
C290       C1791   1.480       .  S
C291        O296   1.274       .  A
C291        O294   1.266       .  A
C291       C1798   1.481       .  S
Cd292       O299   2.408   1_565  S
Cd292       O298   2.415       .  S
Cd292       O297   2.413       .  S
Cd292       O293   2.453       .  S
Cd292       O296   2.505       .  S
Cd292       O294   2.412       .  S
C295        O299   1.261       .  A
C295       C1918   1.487       .  S
O300        C303   1.268       .  A
O300       Cd305   2.439       .  S
C301        O310   1.264   1_545  A
C301        O306   1.270       .  A
C301       C1811   1.475       .  S
O302        C308   1.275       .  A
O302       Cd305   2.504       .  S
C303        O311   1.269       .  A
C303       C2148   1.471       .  S
C304        O309   1.272       .  A
C304        O307   1.263       .  A
C304       C1891   1.485       .  S
Cd305       O312   2.398       .  S
Cd305       O311   2.420       .  S
Cd305       O310   2.397       .  S
Cd305       O306   2.461   1_565  S
Cd305       O309   2.535   1_565  S
Cd305       O307   2.399   1_565  S
C308        O312   1.263       .  A
C308       C1781   1.479       .  S
O313        C316   1.271       .  A
O313       Cd318   2.439       .  S
C314        O323   1.267       .  A
C314        O319   1.272       .  A
C314       C1768   1.472       .  S
O315        C321   1.277       .  A
O315       Cd318   2.542   1_455  S
C316        O324   1.268       .  A
C316       C1748   1.476       .  S
C317        O322   1.278       .  A
C317        O320   1.263       .  A
C317       C2241   1.486       .  S
Cd318       O325   2.393   1_655  S
Cd318       O324   2.429       .  S
Cd318       O323   2.393       .  S
Cd318       O319   2.429       .  S
Cd318       O322   2.509       .  S
Cd318       O320   2.388       .  S
C321        O325   1.266       .  A
C321       C1758   1.496       .  S
O326        C329   1.269       .  A
O326       Cd331   2.416       .  S
C327        O336   1.265       .  A
C327        O332   1.268       .  A
C327       C1961   1.472       .  S
O328        C334   1.275       .  A
O328       Cd331   2.517   1_455  S
C329        O337   1.269       .  A
C329       C1771   1.474       .  S
C330        O335   1.277       .  A
C330        O333   1.259       .  A
C330       C2331   1.491       .  S
Cd331       O338   2.411   1_655  S
Cd331       O337   2.411       .  S
Cd331       O336   2.412       .  S
Cd331       O332   2.441       .  S
Cd331       O335   2.539       .  S
Cd331       O333   2.390       .  S
C334        O338   1.264       .  A
C334       C1738   1.480       .  S
O339        C342   1.267       .  A
O339       Cd344   2.501       .  S
C340        O349   1.265       .  A
C340        O345   1.267       .  A
C340       C1718   1.485       .  S
O341        C347   1.265       .  A
O341       Cd344   2.451       .  S
C342        O350   1.265       .  A
C342       C1728   1.480       .  S
C343        O348   1.269       .  A
C343        O346   1.263       .  A
C343       C1708   1.495       .  S
Cd344       O351   2.501       .  S
Cd344       O350   2.450       .  S
Cd344       O349   2.470       .  S
Cd344       O345   2.464       .  S
Cd344       O348   2.504       .  S
Cd344       O346   2.483       .  S
C347        O351   1.270       .  A
C347       C2278   1.484       .  S
O352        C355   1.267       .  A
O352       Cd357   2.490       .  S
C353        O362   1.264       .  A
C353        O358   1.266       .  A
C353       C1721   1.484       .  S
O354        C360   1.267       .  A
O354       Cd357   2.502       .  S
C355        O363   1.266       .  A
C355       C1778   1.481       .  S
C356        O361   1.268       .  A
C356        O359   1.264       .  A
C356       C2251   1.493       .  S
Cd357       O364   2.483       .  S
Cd357       O363   2.449       .  S
Cd357       O362   2.465       .  S
Cd357       O358   2.487       .  S
Cd357       O361   2.518       .  S
Cd357       O359   2.461       .  S
C360        O364   1.266       .  A
C360       C1698   1.495       .  S
O365        C368   1.268       .  A
O365       Cd370   2.467       .  S
C366        O375   1.263       .  A
C366        O371   1.266       .  A
C366       C1801   1.481       .  S
O367        C373   1.270       .  A
O367       Cd370   2.504       .  S
C368        O376   1.267       .  A
C368       C1688   1.488       .  S
C369        O374   1.264       .  A
C369        O372   1.267       .  A
C369       C1678   1.502       .  S
Cd370       O377   2.483       .  S
Cd370       O376   2.488       .  S
Cd370       O375   2.446       .  S
Cd370       O371   2.510       .  S
Cd370       O374   2.524       .  S
Cd370       O372   2.470       .  S
C373        O377   1.264       .  A
C373       C1701   1.493       .  S
O378        C381   1.266       .  A
O378       Cd383   2.486       .  S
C379        O388   1.263       .  A
C379        O384   1.267       .  A
C379       C1668   1.491       .  S
O380        C386   1.268       .  A
O380       Cd383   2.496       .  S
C381        O389   1.266       .  A
C381       C1658   1.489       .  S
C382        O387   1.265       .  A
C382        O385   1.267       .  A
C382       C1711   1.495       .  S
Cd383       O390   2.449       .  S
Cd383       O389   2.489       .  S
Cd383       O388   2.468       .  S
Cd383       O384   2.519       .  S
Cd383       O387   2.498       .  S
Cd383       O385   2.510       .  S
C386        O390   1.263       .  A
C386       C1821   1.481       .  S
O391        C394   1.269       .  A
O391       Cd396   2.490       .  S
C392        O401   1.263       .  A
C392        O397   1.270       .  A
C392       C1761   1.494       .  S
O393        C399   1.270       .  A
O393       Cd396   2.528       .  S
C394        O402   1.267       .  A
C394       C1691   1.489       .  S
C395        O400   1.270       .  A
C395        O398   1.267       .  A
C395       C1648   1.496       .  S
Cd396       O403   2.458       .  S
Cd396       O402   2.471       .  S
Cd396       O401   2.447       .  S
Cd396       O397   2.534       .  S
Cd396       O400   2.495       .  S
Cd396       O398   2.489       .  S
C399        O403   1.263       .  A
C399       C1641   1.496       .  S
O404        C407   1.266       .  A
O404       Cd409   2.491       .  S
C405        O414   1.265       .  A
C405        O410   1.268       .  A
C405       C1741   1.484       .  S
O406        C412   1.267       .  A
O406       Cd409   2.485       .  S
C407        O415   1.264       .  A
C407       C1661   1.487       .  S
C408        O413   1.266       .  A
C408        O411   1.262       .  A
C408       C1838   1.488       .  S
Cd409       O416   2.501       .  S
Cd409       O415   2.489       .  S
Cd409       O414   2.463       .  S
Cd409       O410   2.503       .  S
Cd409       O413   2.521       .  S
Cd409       O411   2.481       .  S
C412        O416   1.267       .  A
C412       C1651   1.495       .  S
O417        C420   1.264       .  A
O417       Cd422   2.447       .  S
C418        O427   1.267       .  A
C418        O423   1.269   1_554  A
C418       C1608   1.469       .  S
O419        C425   1.273       .  A
O419       Cd422   2.507       .  S
C420        O428   1.270       .  A
C420       C1628   1.474       .  S
C421        O426   1.273       .  A
C421        O424   1.263       .  A
C421       C1618   1.481       .  S
Cd422       O429   2.399       .  S
Cd422       O428   2.412       .  S
Cd422       O427   2.430   1_556  S
Cd422       O423   2.436       .  S
Cd422       O426   2.498   1_556  S
Cd422       O424   2.406   1_556  S
C425        O429   1.263       .  A
C425       C2091   1.476       .  S
O430        C433   1.273       .  A
O430       Cd435   2.438       .  S
C431        O440   1.267       .  A
C431        O436   1.270       .  A
C431       C1591   1.471       .  S
O432        C438   1.275       .  A
O432       Cd435   2.522   1_554  S
C433        O441   1.262       .  A
C433       C1631   1.472       .  S
C434        O439   1.275       .  A
C434        O437   1.265       .  A
C434       C2111   1.474       .  S
Cd435       O442   2.397   1_556  S
Cd435       O441   2.399       .  S
Cd435       O440   2.416       .  S
Cd435       O436   2.428       .  S
Cd435       O439   2.510       .  S
Cd435       O437   2.375       .  S
C438        O442   1.263       .  A
C438       C1598   1.486       .  S
O443        C446   1.264       .  A
O443       Cd448   2.482       .  S
C444        O453   1.264       .  A
C444        O449   1.266       .  A
C444       C1621   1.473       .  S
O445        C451   1.267       .  A
O445       Cd448   2.505       .  S
C446        O454   1.266       .  A
C446       C1568   1.485       .  S
C447        O452   1.265       .  A
C447        O450   1.268       .  A
C447       C1578   1.493       .  S
Cd448       O455   2.480       .  S
Cd448       O454   2.491       .  S
Cd448       O453   2.430       .  S
Cd448       O449   2.484       .  S
Cd448       O452   2.489       .  S
Cd448       O450   2.491       .  S
C451        O455   1.263       .  A
C451       C1558   1.490       .  S
O456        C459   1.265       .  A
O456       Cd461   2.499       .  S
C457        O466   1.267       .  A
C457        O462   1.265       .  A
C457       C1571   1.483       .  S
O458        C464   1.266       .  A
O458       Cd461   2.514       .  S
C459        O467   1.263       .  A
C459       C1548   1.478       .  S
C460        O465   1.266       .  A
C460        O463   1.266       .  A
C460       C1538   1.490       .  S
Cd461       O468   2.453       .  S
Cd461       O467   2.466       .  S
Cd461       O466   2.477       .  S
Cd461       O462   2.482       .  S
Cd461       O465   2.492       .  S
Cd461       O463   2.477       .  S
C464        O468   1.261       .  A
C464       C1531   1.486       .  S
O469        C472   1.263       .  A
O469       Cd474   2.471       .  S
C470        O479   1.265       .  A
C470        O475   1.264       .  A
C470       C1601   1.481       .  S
O471        C477   1.267       .  A
O471       Cd474   2.488       .  S
C472        O480   1.267       .  A
C472       C1518   1.486       .  S
C473        O478   1.265       .  A
C473        O476   1.264       .  A
C473       C1508   1.478       .  S
Cd474       O481   2.497       .  S
Cd474       O480   2.479       .  S
Cd474       O479   2.466       .  S
Cd474       O475   2.497       .  S
Cd474       O478   2.496       .  S
Cd474       O476   2.466       .  S
C477        O481   1.264       .  A
C477       C1581   1.492       .  S
O482        C485   1.266       .  A
O482       Cd487   2.488       .  S
C483        O492   1.264       .  A
C483        O488   1.267       .  A
C483       C1498   1.474       .  S
O484        C490   1.267       .  A
O484       Cd487   2.504       .  S
C485        O493   1.264       .  A
C485       C1521   1.485       .  S
C486        O491   1.266       .  A
C486        O489   1.266       .  A
C486       C1488   1.494       .  S
Cd487       O494   2.454       .  S
Cd487       O493   2.468       .  S
Cd487       O492   2.439       .  S
Cd487       O488   2.495       .  S
Cd487       O491   2.492       .  S
Cd487       O489   2.497       .  S
C490        O494   1.263       .  A
C490       C1481   1.483       .  S
O495        C498   1.266       .  A
O495       Cd500   2.474       .  S
C496        O505   1.265       .  A
C496        O501   1.265       .  A
C496       C1468   1.489       .  S
O497        C503   1.266       .  A
O497       Cd500   2.516       .  S
C498        O506   1.265       .  A
C498       C1461   1.486       .  S
C499        O504   1.266       .  A
C499        O502   1.266       .  A
C499       C1541   1.493       .  S
Cd500       O507   2.455       .  S
Cd500       O506   2.489       .  S
Cd500       O505   2.476       .  S
Cd500       O501   2.506       .  S
Cd500       O504   2.503       .  S
Cd500       O502   2.480       .  S
C503        O507   1.262       .  A
C503       C2011   1.490       .  S
O508        C511   1.265       .  A
O508       Cd513   2.506       .  S
C509        O518   1.265       .  A
C509        O514   1.268       .  A
C509       C1451   1.482       .  S
O510        C516   1.267       .  A
O510       Cd513   2.498       .  S
C511        O519   1.265       .  A
C511       C1458   1.492       .  S
C512        O517   1.265       .  A
C512        O515   1.262       .  A
C512       C2041   1.480       .  S
Cd513       O520   2.488       .  S
Cd513       O519   2.478       .  S
Cd513       O518   2.448       .  S
Cd513       O514   2.502       .  S
Cd513       O517   2.490       .  S
Cd513       O515   2.472       .  S
C516        O520   1.266       .  A
C516       C1491   1.495       .  S
O521        C524   1.266       .  A
O521       Cd526   2.447       .  S
C522        O531   1.267       .  A
C522        O527   1.266   1_554  A
C522       C1438   1.471       .  S
O523        C529   1.272       .  A
O523       Cd526   2.522   1_556  S
C524        O532   1.266       .  A
C524       C1418   1.468       .  S
C525        O530   1.273       .  A
C525        O528   1.262       .  A
C525       C1428   1.475       .  S
Cd526       O533   2.404   1_554  S
Cd526       O532   2.420       .  S
Cd526       O531   2.442       .  S
Cd526       O527   2.422   1_554  S
Cd526       O530   2.517       .  S
Cd526       O528   2.382       .  S
C529        O533   1.262       .  A
C529       C2301   1.481       .  S
O534        C537   1.274       .  A
O534       Cd539   2.405       .  S
C535        O544   1.271       .  A
C535        O540   1.272       .  A
C535       C1588   1.470   1_554  S
O536        C542   1.279       .  A
O536       Cd539   2.488   1_556  S
C537        O545   1.270       .  A
C537       C1441   1.469       .  S
C538        O543   1.279       .  A
C538        O541   1.267       .  A
C538       C1408   1.484       .  S
Cd539       O546   2.386   1_554  S
Cd539       O545   2.397       .  S
Cd539       O544   2.419       .  S
Cd539       O540   2.419       .  S
Cd539       O543   2.496       .  S
Cd539       O541   2.372       .  S
C542        O546   1.267       .  A
C542       C2371   1.488       .  S
O547        C550   1.266       .  A
O547       Cd552   2.436       .  S
C548        O557   1.265       .  A
C548        O553   1.265       .  A
C548       C1398   1.466       .  S
O549        C555   1.269       .  A
O549       Cd552   2.518       .  S
C550        O558   1.267   1_565  A
C550       C1381   1.466       .  S
C551        O556   1.269       .  A
C551        O554   1.261       .  A
C551       C1551   1.483       .  S
Cd552       O559   2.433       .  S
Cd552       O558   2.434   1_565  S
Cd552       O557   2.442       .  S
Cd552       O553   2.448       .  S
Cd552       O556   2.525   1_565  S
Cd552       O554   2.422   1_565  S
C555        O559   1.262       .  A
C555       C1388   1.482       .  S
O560        C563   1.266       .  A
O560       Cd565   2.434       .  S
C561        O570   1.266       .  A
C561        O566   1.266       .  A
C561       C2168   1.470       .  S
O562        C568   1.273       .  A
O562       Cd565   2.504       .  S
C563        O571   1.267       .  A
C563       C1401   1.465       .  S
C564        O569   1.270       .  A
C564        O567   1.262       .  A
C564       C1471   1.481       .  S
Cd565       O572   2.385       .  S
Cd565       O571   2.438       .  S
Cd565       O570   2.421   1_565  S
Cd565       O566   2.437   1_565  S
Cd565       O569   2.528   1_565  S
Cd565       O567   2.420   1_565  S
C568        O572   1.262       .  A
C568       C1368   1.474       .  S
O573        C576   1.266       .  A
O573       Cd578   2.488       .  S
C574        O583   1.267       .  A
C574        O579   1.262       .  A
C574       C1358   1.490       .  S
O575        C581   1.268       .  A
O575       Cd578   2.495       .  S
C576        O584   1.265       .  A
C576       C1371   1.479       .  S
C577        O582   1.267       .  A
C577        O580   1.265       .  A
C577       C1348   1.481       .  S
Cd578       O585   2.444       .  S
Cd578       O584   2.452       .  S
Cd578       O583   2.482       .  S
Cd578       O579   2.469       .  S
Cd578       O582   2.496       .  S
Cd578       O580   2.472       .  S
C581        O585   1.262       .  A
C581       C2201   1.481       .  S
O586        C589   1.265       .  A
O586       Cd591   2.477       .  S
C587        O596   1.262       .  A
C587        O592   1.265       .  A
C587       C1338   1.474       .  S
O588        C594   1.268       .  A
O588       Cd591   2.511       .  S
C589        O597   1.262       .  A
C589       C1361   1.489       .  S
C590        O595   1.267       .  A
C590        O593   1.264       .  A
C590       C1328   1.491       .  S
Cd591       O598   2.443       .  S
Cd591       O597   2.485       .  S
Cd591       O596   2.455       .  S
Cd591       O592   2.494       .  S
Cd591       O595   2.497       .  S
Cd591       O593   2.483       .  S
C594        O598   1.264       .  A
C594       C2221   1.485       .  S
O599        C602   1.264       .  A
O599       Cd604   2.489       .  S
C600        O609   1.265       .  A
C600        O605   1.267       .  A
C600       C1391   1.480       .  S
O601        C607   1.268       .  A
O601       Cd604   2.508       .  S
C602        O610   1.263       .  A
C602       C1318   1.484       .  S
C603        O608   1.263       .  A
C603        O606   1.263       .  A
C603       C1351   1.497       .  S
Cd604       O611   2.461       .  S
Cd604       O610   2.487       .  S
Cd604       O609   2.465       .  S
Cd604       O605   2.501       .  S
Cd604       O608   2.484       .  S
Cd604       O606   2.524       .  S
C607        O611   1.265       .  A
C607       C1311   1.483       .  S
O612        C615   1.264       .  A
O612       Cd617   2.465       .  S
C613        O622   1.266       .  A
C613        O618   1.266       .  A
C613       C1298   1.478       .  S
O614        C620   1.267       .  A
O614       Cd617   2.501       .  S
C615        O623   1.265       .  A
C615       C1291   1.477       .  S
C616        O621   1.266       .  A
C616        O619   1.262       .  A
C616       C1478   1.488       .  S
Cd617       O624   2.478       .  S
Cd617       O623   2.480       .  S
Cd617       O622   2.455       .  S
Cd617       O618   2.481       .  S
Cd617       O621   2.521       .  S
Cd617       O619   2.461       .  S
C620        O624   1.266       .  A
C620       C1331   1.490       .  S
O625        C628   1.266       .  A
O625       Cd630   2.487       .  S
C626        O635   1.264       .  A
C626        O631   1.267       .  A
C626       C1321   1.485       .  S
O627        C633   1.268       .  A
O627       Cd630   2.497       .  S
C628        O636   1.266       .  A
C628       C1431   1.479       .  S
C629        O634   1.268       .  A
C629        O632   1.263       .  A
C629       C1278   1.492       .  S
Cd630       O637   2.435       .  S
Cd630       O636   2.450       .  S
Cd630       O635   2.469       .  S
Cd630       O631   2.481       .  S
Cd630       O634   2.497       .  S
Cd630       O632   2.483       .  S
C633        O637   1.263       .  A
C633       C1268   1.481       .  S
O638        C641   1.265       .  A
O638       Cd643   2.471       .  S
C639        O648   1.264       .  A
C639        O644   1.267       .  A
C639       C1411   1.482       .  S
O640        C646   1.267       .  A
O640       Cd643   2.511       .  S
C641        O649   1.265       .  A
C641       C1288   1.475       .  S
C642        O647   1.264       .  A
C642        O645   1.267       .  A
C642       C1281   1.489       .  S
Cd643       O650   2.420       .  S
Cd643       O649   2.463       .  S
Cd643       O648   2.437       .  S
Cd643       O644   2.482       .  S
Cd643       O647   2.483       .  S
Cd643       O645   2.467       .  S
C646        O650   1.260       .  A
C646       C1511   1.470       .  S
O651        C654   1.266       .  A
O651       Cd656   2.431       .  S
C652        O661   1.267       .  A
C652        O657   1.266       .  A
C652       C1241   1.467       .  S
O653        C659   1.272       .  A
O653       Cd656   2.528       .  S
C654        O662   1.267       .  A
C654       C1258   1.466   1_554  S
C655        O660   1.272       .  A
C655        O658   1.262       .  A
C655       C1671   1.487       .  S
Cd656       O663   2.413       .  S
Cd656       O662   2.422       .  S
Cd656       O661   2.427       .  S
Cd656       O657   2.427       .  S
Cd656       O660   2.531   1_554  S
Cd656       O658   2.418   1_554  S
C659        O663   1.262       .  A
C659       C1248   1.485       .  S
O664        C667   1.266       .  A
O664       Cd669   2.427       .  S
C665        O674   1.266       .  A
C665        O670   1.266   1_556  A
C665       C1261   1.466       .  S
O666        C672   1.273       .  A
O666       Cd669   2.519       .  S
C667        O675   1.267       .  A
C667       C1421   1.466       .  S
C668        O673   1.272       .  A
C668        O671   1.263       .  A
C668       C1731   1.483       .  S
Cd669       O676   2.406       .  S
Cd669       O675   2.428       .  S
Cd669       O674   2.416   1_554  S
Cd669       O670   2.440       .  S
Cd669       O673   2.526   1_554  S
Cd669       O671   2.417   1_554  S
C672        O676   1.262       .  A
C672       C1228   1.483       .  S
O677        C680   1.268       .  A
O677       Cd682   2.444       .  S
C678        O687   1.266       .  A
C678        O683   1.270   1_655  A
C678       C1218   1.484       .  S
O679        C685   1.274       .  A
O679       Cd682   2.528       .  S
C680        O688   1.267   1_455  A
C680       C1198   1.471   1_455  S
C681        O686   1.276       .  A
C681        O684   1.264       .  A
C681       C1301   1.476       .  S
Cd682       O689   2.388       .  S
Cd682       O688   2.444   1_455  S
Cd682       O687   2.411   1_455  S
Cd682       O683   2.450       .  S
Cd682       O686   2.517   1_455  S
Cd682       O684   2.378   1_455  S
C685        O689   1.262       .  A
C685       C1211   1.480       .  S
O690        C693   1.268       .  A
O690       Cd695   2.451       .  S
C691        O700   1.266       .  A
C691        O696   1.269       .  A
C691       C1221   1.482       .  S
O692        C698   1.275       .  A
O692       Cd695   2.498       .  S
C693        O701   1.268       .  A
C693       C1751   1.476       .  S
C694        O699   1.274       .  A
C694        O697   1.262       .  A
C694       C1188   1.480       .  S
Cd695       O702   2.383       .  S
Cd695       O701   2.416       .  S
Cd695       O700   2.421       .  S
Cd695       O696   2.443       .  S
Cd695       O699   2.525   1_655  S
Cd695       O697   2.389   1_655  S
C698        O702   1.265       .  A
C698       C1341   1.474       .  S
O703        C706   1.267       .  A
O703       Cd708   2.506       .  S
C704        O713   1.265       .  A
C704        O709   1.266       .  A
C704       C1168   1.490       .  S
O705        C711   1.268       .  A
O705       Cd708   2.520       .  S
C706        O714   1.265       .  A
C706       C1251   1.483       .  S
C707        O712   1.268       .  A
C707        O710   1.264       .  A
C707       C1178   1.496       .  S
Cd708       O715   2.471       .  S
Cd708       O714   2.459       .  S
Cd708       O713   2.496       .  S
Cd708       O709   2.487       .  S
Cd708       O712   2.509       .  S
Cd708       O710   2.487       .  S
C711        O715   1.263       .  A
C711       C1158   1.490       .  S
O716        C719   1.268       .  A
O716       Cd721   2.453       .  S
C717        O726   1.261       .  A
C717        O722   1.265       .  A
C717       C1208   1.484       .  S
O718        C724   1.267       .  A
O718       Cd721   2.546       .  S
C719        O727   1.271       .  A
C719       C1171   1.491       .  S
C720        O725   1.265       .  A
C720        O723   1.265       .  A
C720       C1148   1.502       .  S
Cd721       O728   2.464       .  S
Cd721       O727   2.500       .  S
Cd721       O726   2.457       .  S
Cd721       O722   2.528       .  S
Cd721       O725   2.525       .  S
Cd721       O723   2.476       .  S
C724        O728   1.261       .  A
C724       C1138   1.501       .  S
O729        C732   1.267       .  A
O729       Cd734   2.494       .  S
C730        O739   1.265       .  A
C730        O735   1.268       .  A
C730       C1231   1.485       .  S
O731        C737   1.268       .  A
O731       Cd734   2.511       .  S
C732        O740   1.265       .  A
C732       C1128   1.491       .  S
C733        O738   1.267       .  A
C733        O736   1.267       .  A
C733       C1181   1.495       .  S
Cd734       O741   2.445       .  S
Cd734       O740   2.480       .  S
Cd734       O739   2.449       .  S
Cd734       O735   2.504       .  S
Cd734       O738   2.495       .  S
Cd734       O736   2.483       .  S
C737        O741   1.263       .  A
C737       C1271   1.489       .  S
O742        C745   1.267       .  A
O742       Cd747   2.505       .  S
C743        O752   1.264       .  A
C743        O748   1.266       .  A
C743       C1131   1.492       .  S
O744        C750   1.267       .  A
O744       Cd747   2.516       .  S
C745        O753   1.265       .  A
C745       C1118   1.484       .  S
C746        O751   1.266       .  A
C746        O749   1.267       .  A
C746       C1108   1.497       .  S
Cd747       O754   2.460       .  S
Cd747       O753   2.459       .  S
Cd747       O752   2.478       .  S
Cd747       O748   2.505       .  S
Cd747       O751   2.496       .  S
Cd747       O749   2.503       .  S
C750        O754   1.263       .  A
C750       C1308   1.489       .  S
O755        C758   1.269       .  A
O755       Cd760   2.476       .  S
C756        O765   1.262       .  A
C756        O761   1.267       .  A
C756       C1191   1.479       .  S
O757        C763   1.269       .  A
O757       Cd760   2.489       .  S
C758        O766   1.265       .  A
C758       C1098   1.489       .  S
C759        O764   1.267       .  A
C759        O762   1.263       .  A
C759       C1638   1.487       .  S
Cd760       O767   2.486       .  S
Cd760       O766   2.462       .  S
Cd760       O765   2.430       .  S
Cd760       O761   2.520       .  S
Cd760       O764   2.503       .  S
Cd760       O762   2.449       .  S
C763        O767   1.264       .  A
C763       C1151   1.499       .  S
O768        C771   1.266       .  A
O768       Cd773   2.461       .  S
C769        O778   1.264       .  A
C769        O774   1.265       .  A
C769       C1088   1.481       .  S
O770        C776   1.271       .  A
O770       Cd773   2.532       .  S
C771        O779   1.268       .  A
C771       C1101   1.483       .  S
C772        O777   1.269       .  A
C772        O775   1.263       .  A
C772       C1111   1.491       .  S
Cd773       O780   2.464       .  S
Cd773       O779   2.470       .  S
Cd773       O778   2.465       .  S
Cd773       O774   2.500       .  S
Cd773       O777   2.515       .  S
Cd773       O775   2.479       .  S
C776        O780   1.261       .  A
C776       C1681   1.495       .  S
O781        C784   1.268       .  A
O781       Cd786   2.440       .  S
C782        O791   1.269       .  A
C782        O787   1.269   1_556  A
C782       C1078   1.466       .  S
O783        C789   1.268       .  A
O783       Cd786   2.516       .  S
C784        O792   1.265       .  A
C784       C1238   1.465       .  S
C785        O790   1.273       .  A
C785        O788   1.261       .  A
C785       C1831   1.479       .  S
Cd786       O793   2.416       .  S
Cd786       O792   2.412       .  S
Cd786       O791   2.421   1_554  S
Cd786       O787   2.432       .  S
Cd786       O790   2.520   1_554  S
Cd786       O788   2.392   1_554  S
C789        O793   1.261       .  A
C789       C1068   1.479       .  S
O794        C797   1.267   1_554  A
O794       Cd799   2.446   1_554  S
C795        O804   1.266       .  A
C795        O800   1.266   1_554  A
C795       C1611   1.467       .  S
O796        C802   1.270       .  A
O796       Cd799   2.526   1_554  S
C797        O805   1.266       .  A
C797       C1081   1.467       .  S
C798        O803   1.271       .  A
C798        O801   1.262       .  A
C798       C1871   1.476       .  S
Cd799       O806   2.409   1_556  S
Cd799       O805   2.427       .  S
Cd799       O804   2.426   1_556  S
Cd799       O800   2.453       .  S
Cd799       O803   2.504       .  S
Cd799       O801   2.406       .  S
C802        O806   1.262       .  A
C802       C1058   1.480       .  S
O807        C810   1.266       .  A
O807       Cd812   2.442       .  S
C808        O817   1.264       .  A
C808        O813   1.271   1_545  A
C808       C1048   1.473       .  S
O809        C815   1.273       .  A
O809       Cd812   2.516       .  S
C810        O818   1.268       .  A
C810       C1788   1.477       .  S
C811        O816   1.274       .  A
C811        O814   1.263       .  A
C811       C1038   1.489       .  S
Cd812       O819   2.436       .  S
Cd812       O818   2.404       .  S
Cd812       O817   2.386   1_565  S
Cd812       O813   2.462       .  S
Cd812       O816   2.522   1_565  S
Cd812       O814   2.407   1_565  S
C815        O819   1.264       .  A
C815       C1091   1.482       .  S
O820        C823   1.267       .  A
O820       Cd825   2.434   1_545  S
C821        O830   1.266       .  A
C821        O826   1.267       .  A
C821       C1378   1.460       .  S
O822        C828   1.274       .  A
O822       Cd825   2.525       .  S
C823        O831   1.268       .  A
C823       C1051   1.475       .  S
C824        O829   1.275       .  A
C824        O827   1.264       .  A
C824       C1028   1.476       .  S
Cd825       O832   2.417       .  S
Cd825       O831   2.383   1_565  S
Cd825       O830   2.411   1_565  S
Cd825       O826   2.437   1_565  S
Cd825       O829   2.507   1_565  S
Cd825       O827   2.388   1_565  S
C828        O832   1.262       .  A
C828       C1121   1.483       .  S
O833        C836   1.270       .  A
O833       Cd838   2.450       .  S
C834        O843   1.268   1_655  A
C834        O839   1.269       .  A
C834       C1021   1.477   1_655  S
O835        C841   1.274       .  A
O835       Cd838   2.528   1_455  S
C836        O844   1.263       .  A
C836       C1981   1.477       .  S
C837        O842   1.273       .  A
C837        O840   1.263       .  A
C837       C1448   1.476       .  S
Cd838       O845   2.398   1_655  S
Cd838       O844   2.436       .  S
Cd838       O843   2.428   1_655  S
Cd838       O839   2.466       .  S
Cd838       O842   2.518       .  S
Cd838       O840   2.406       .  S
C841        O845   1.262       .  A
C841       C1008   1.488       .  S
O846        C849   1.268   1_655  A
O846       Cd851   2.470       .  S
C847        O856   1.266       .  A
C847        O852   1.266   1_655  A
C847       C1201   1.477       .  S
O848        C854   1.270       .  A
O848       Cd851   2.517   1_455  S
C849        O857   1.266       .  A
C849       C1018   1.476       .  S
C850        O855   1.270       .  A
C850        O853   1.263       .  A
C850       C1501   1.479       .  S
Cd851       O858   2.398   1_655  S
Cd851       O857   2.426   1_655  S
Cd851       O856   2.460       .  S
Cd851       O852   2.464   1_655  S
Cd851       O855   2.510       .  S
Cd851       O853   2.413       .  S
C854        O858   1.262       .  A
C854        C998   1.472       .  S
O859        C862   1.267       .  A
O859       Cd864   2.503       .  S
C860        O869   1.264       .  A
C860        O865   1.265       .  A
C860        C988   1.487       .  S
O861        C867   1.268       .  A
O861       Cd864   2.513       .  S
C862        O870   1.265       .  A
C862       C1061   1.482       .  S
C863        O868   1.269       .  A
C863        O866   1.263       .  A
C863        C978   1.501       .  S
Cd864       O871   2.479       .  S
Cd864       O870   2.447       .  S
Cd864       O869   2.481       .  S
Cd864       O865   2.512       .  S
Cd864       O868   2.523       .  S
Cd864       O866   2.500       .  S
C867        O871   1.264       .  A
C867       C1561   1.490       .  S
O872        C875   1.267       .  A
O872       Cd877   2.506       .  S
C873        O882   1.264       .  A
C873        O878   1.268       .  A
C873       C1031   1.480       .  S
O874        C880   1.267       .  A
O874       Cd877   2.498       .  S
C875        O883   1.264       .  A
C875        C991   1.482       .  S
C876        O881   1.266       .  A
C876        O879   1.266       .  A
C876        C968   1.494       .  S
Cd877       O884   2.462       .  S
Cd877       O883   2.471       .  S
Cd877       O882   2.439       .  S
Cd877       O878   2.505       .  S
Cd877       O881   2.504       .  S
Cd877       O879   2.485       .  S
C880        O884   1.264       .  A
C880       C1528   1.484       .  S
O885        C888   1.266       .  A
O885       Cd890   2.509       .  S
C886        O895   1.262       .  A
C886        O891   1.268       .  A
C886       C1071   1.487       .  S
O887        C893   1.269       .  A
O887       Cd890   2.513       .  S
C888        O896   1.265       .  A
C888        C958   1.491       .  S
C889        O894   1.268       .  A
C889        O892   1.269       .  A
C889        C981   1.502       .  S
Cd890       O897   2.479       .  S
Cd890       O896   2.475       .  S
Cd890       O895   2.422       .  S
Cd890       O891   2.515       .  S
Cd890       O894   2.512       .  S
Cd890       O892   2.505       .  S
C893        O897   1.263       .  A
C893       C1161   1.495       .  S
O898        C901   1.265       .  A
O898       Cd903   2.506       .  S
C899        O908   1.264       .  A
C899        O904   1.268       .  A
C899        C961   1.492       .  S
O900        C906   1.268       .  A
O900       Cd903   2.515       .  S
C901        O909   1.263       .  A
C901       C1001   1.480       .  S
C902        O907   1.266       .  A
C902        O905   1.262       .  A
C902        C948   1.492       .  S
Cd903       O910   2.473       .  S
Cd903       O909   2.437       .  S
Cd903       O908   2.479       .  S
Cd903       O904   2.479       .  S
Cd903       O907   2.528       .  S
Cd903       O905   2.479       .  S
C906        O910   1.264       .  A
C906       C1141   1.497       .  S
O911        C914   1.267       .  A
O911       Cd916   2.517       .  S
C912        O921   1.265       .  A
C912        O917   1.267       .  A
C912        C938   1.487       .  S
O913        C919   1.271       .  A
O913       Cd916   2.510       .  S
C914        O922   1.264       .  A
C914       C1041   1.484       .  S
C915        O920   1.267       .  A
C915        O918   1.265       .  A
C915        C971   1.495       .  S
Cd916       O923   2.469       .  S
Cd916       O922   2.442       .  S
Cd916       O921   2.471       .  S
Cd916       O917   2.488       .  S
Cd916       O920   2.510       .  S
Cd916       O918   2.490       .  S
C919        O923   1.263       .  A
C919       C1901   1.494       .  S
O924        C927   1.265       .  A
O924       Cd929   2.481       .  S
C925        O934   1.265       .  A
C925        O930   1.268       .  A
C925       C1011   1.481       .  S
O926        C932   1.270       .  A
O926       Cd929   2.520       .  S
C927        O935   1.266       .  A
C927        C941   1.487       .  S
C928        O933   1.268       .  A
C928        O931   1.264       .  A
C928        C951   1.487       .  S
Cd929       O936   2.468       .  S
Cd929       O935   2.484       .  S
Cd929       O934   2.417       .  S
Cd929       O930   2.506       .  S
Cd929       O933   2.521       .  S
Cd929       O931   2.467       .  S
C932        O936   1.262       .  A
C932       C1931   1.494       .  S
C937        C938   1.413       .  A
C937        C942   1.412       .  A
C937       Br944   1.931       .  S
C938        C939   1.413       .  A
C939        C940   1.411       .  A
C939       Br946   1.933       .  S
C940        C941   1.414       .  A
C940       Br945   1.933       .  S
C941        C942   1.412       .  A
C942       Br943   1.931       .  S
C947        C948   1.414       .  A
C947        C952   1.410       .  A
C947       Br954   1.933       .  S
C948        C949   1.414       .  A
C949        C950   1.415       .  A
C949       Br956   1.929       .  S
C950        C951   1.411       .  A
C950       Br955   1.927       .  S
C951        C952   1.411       .  A
C952       Br953   1.934       .  S
C957        C958   1.414       .  A
C957        C962   1.413       .  A
C957       Br964   1.933       .  S
C958        C959   1.412       .  A
C959        C960   1.412       .  A
C959       Br966   1.932       .  S
C960        C961   1.415       .  A
C960       Br965   1.932       .  S
C961        C962   1.416       .  A
C962       Br963   1.936       .  S
C967        C968   1.413       .  A
C967        C972   1.413       .  A
C967       Br974   1.932       .  S
C968        C969   1.416       .  A
C969        C970   1.415       .  A
C969       Br976   1.933       .  S
C970        C971   1.415       .  A
C970       Br975   1.933       .  S
C971        C972   1.414       .  A
C972       Br973   1.931       .  S
C977        C978   1.416       .  A
C977        C982   1.416       .  A
C977       Br984   1.931       .  S
C978        C979   1.414       .  A
C979        C980   1.417       .  A
C979       Br986   1.933       .  S
C980        C981   1.418       .  A
C980       Br985   1.932       .  S
C981        C982   1.413       .  A
C982       Br983   1.931       .  S
C987        C988   1.412       .  A
C987        C992   1.409       .  A
C987       Br994   1.931       .  S
C988        C989   1.414       .  A
C989        C990   1.415       .  A
C989       Br996   1.928       .  S
C990        C991   1.410       .  A
C990       Br995   1.928       .  S
C991        C992   1.409       .  A
C992       Br993   1.932       .  S
C997        C998   1.409       .  A
C997       C1002   1.413       .  A
C997      Br1004   1.928       .  S
C998        C999   1.406       .  A
C999       C1000   1.402       .  A
C999      Br1006   1.931       .  S
C1000      C1001   1.410       .  A
C1000     Br1005   1.928       .  S
C1001      C1002   1.414       .  A
C1002     Br1003   1.929       .  S
C1007      C1008   1.415       .  A
C1007      C1012   1.416       .  A
C1007     Br1014   1.929       .  S
C1008      C1009   1.416       .  A
C1009      C1010   1.403       .  A
C1009     Br1016   1.933       .  S
C1010      C1011   1.408       .  A
C1010     Br1015   1.939       .  S
C1011      C1012   1.413       .  A
C1012     Br1013   1.930       .  S
C1017      C1018   1.409       .  A
C1017      C1022   1.405       .  A
C1017     Br1024   1.932       .  S
C1018      C1019   1.412   1_455  A
C1019      C1020   1.410       .  A
C1019     Br1026   1.931       .  S
C1020      C1021   1.412   1_655  A
C1020     Br1025   1.930       .  S
C1021      C1022   1.410       .  A
C1022     Br1023   1.933       .  S
C1027      C1028   1.410       .  A
C1027      C1032   1.406       .  A
C1027     Br1034   1.932       .  S
C1028      C1029   1.408       .  A
C1029      C1030   1.412       .  A
C1029     Br1036   1.928       .  S
C1030      C1031   1.413       .  A
C1030     Br1035   1.928       .  S
C1031      C1032   1.410       .  A
C1032     Br1033   1.933       .  S
C1037      C1038   1.414       .  A
C1037      C1042   1.406       .  A
C1037     Br1044   1.931       .  S
C1038      C1039   1.416       .  A
C1039      C1040   1.416       .  A
C1039     Br1046   1.931       .  S
C1040      C1041   1.412       .  A
C1040     Br1045   1.929       .  S
C1041      C1042   1.410       .  A
C1042     Br1043   1.936       .  S
C1047      C1048   1.412   1_565  A
C1047      C1052   1.399       .  A
C1047     Br1054   1.933       .  S
C1048      C1049   1.410       .  A
C1049      C1050   1.408       .  A
C1049     Br1056   1.932       .  S
C1050      C1051   1.416       .  A
C1050     Br1055   1.934       .  S
C1051      C1052   1.411   1_545  A
C1052     Br1053   1.938       .  S
C1057      C1058   1.411       .  A
C1057      C1062   1.413       .  A
C1057     Br1064   1.929       .  S
C1058      C1059   1.409       .  A
C1059      C1060   1.405       .  A
C1059     Br1066   1.931       .  S
C1060      C1061   1.410       .  A
C1060     Br1065   1.931       .  S
C1061      C1062   1.414       .  A
C1062     Br1063   1.930       .  S
C1067      C1068   1.409       .  A
C1067      C1072   1.416       .  A
C1067     Br1074   1.927       .  S
C1068      C1069   1.411       .  A
C1069      C1070   1.403       .  A
C1069     Br1076   1.939       .  S
C1070      C1071   1.415       .  A
C1070     Br1075   1.938       .  S
C1071      C1072   1.416       .  A
C1072     Br1073   1.929       .  S
C1077      C1078   1.408       .  A
C1077      C1082   1.404       .  A
C1077     Br1084   1.930       .  S
C1078      C1079   1.408   1_556  A
C1079      C1080   1.404       .  A
C1079     Br1086   1.931       .  S
C1080      C1081   1.409   1_554  A
C1080     Br1085   1.932       .  S
C1081      C1082   1.409       .  A
C1082     Br1083   1.930       .  S
C1087      C1088   1.409       .  A
C1087      C1092   1.408       .  A
C1087     Br1094   1.924       .  S
C1088      C1089   1.410       .  A
C1089      C1090   1.412       .  A
C1089     Br1096   1.931       .  S
C1090      C1091   1.411       .  A
C1090     Br1095   1.922       .  S
C1091      C1092   1.410       .  A
C1092     Br1093   1.930       .  S
C1097      C1098   1.417       .  A
C1097      C1102   1.410       .  A
C1097     Br1104   1.934       .  S
C1098      C1099   1.415       .  A
C1099      C1100   1.411       .  A
C1099     Br1106   1.932       .  S
C1100      C1101   1.411       .  A
C1100     Br1105   1.931       .  S
C1101      C1102   1.412       .  A
C1102     Br1103   1.935       .  S
C1107      C1108   1.417       .  A
C1107      C1112   1.413       .  A
C1107     Br1114   1.932       .  S
C1108      C1109   1.415       .  A
C1109      C1110   1.415       .  A
C1109     Br1116   1.932       .  S
C1110      C1111   1.413       .  A
C1110     Br1115   1.931       .  S
C1111      C1112   1.411       .  A
C1112     Br1113   1.933       .  S
C1117      C1118   1.408       .  A
C1117      C1122   1.408       .  A
C1117     Br1124   1.932       .  S
C1118      C1119   1.413       .  A
C1119      C1120   1.414       .  A
C1119     Br1126   1.929       .  S
C1120      C1121   1.411       .  A
C1120     Br1125   1.929       .  S
C1121      C1122   1.412       .  A
C1122     Br1123   1.928       .  S
C1127      C1128   1.413       .  A
C1127      C1132   1.414       .  A
C1127     Br1134   1.931       .  S
C1128      C1129   1.414       .  A
C1129      C1130   1.411       .  A
C1129     Br1136   1.934       .  S
C1130      C1131   1.415       .  A
C1130     Br1135   1.935       .  S
C1131      C1132   1.414       .  A
C1132     Br1133   1.931       .  S
C1137      C1138   1.417       .  A
C1137      C1142   1.418       .  A
C1137     Br1144   1.930       .  S
C1138      C1139   1.418       .  A
C1139      C1140   1.411       .  A
C1139     Br1146   1.936       .  S
C1140      C1141   1.414       .  A
C1140     Br1145   1.934       .  S
C1141      C1142   1.415       .  A
C1142     Br1143   1.932       .  S
C1147      C1148   1.418       .  A
C1147      C1152   1.413       .  A
C1147     Br1154   1.937       .  S
C1148      C1149   1.417       .  A
C1149      C1150   1.416       .  A
C1149     Br1156   1.931       .  S
C1150      C1151   1.415       .  A
C1150     Br1155   1.934       .  S
C1151      C1152   1.418       .  A
C1152     Br1153   1.936       .  S
C1157      C1158   1.412       .  A
C1157      C1162   1.414       .  A
C1157     Br1164   1.930       .  S
C1158      C1159   1.412       .  A
C1159      C1160   1.413       .  A
C1159     Br1166   1.934       .  S
C1160      C1161   1.417       .  A
C1160     Br1165   1.932       .  S
C1161      C1162   1.415       .  A
C1162     Br1163   1.932       .  S
C1167      C1168   1.412       .  A
C1167      C1172   1.409       .  A
C1167     Br1174   1.933       .  S
C1168      C1169   1.414       .  A
C1169      C1170   1.416       .  A
C1169     Br1176   1.931       .  S
C1170      C1171   1.414       .  A
C1170     Br1175   1.930       .  S
C1171      C1172   1.414       .  A
C1172     Br1173   1.935       .  S
C1177      C1178   1.415       .  A
C1177      C1182   1.414       .  A
C1177     Br1184   1.932       .  S
C1178      C1179   1.415       .  A
C1179      C1180   1.414       .  A
C1179     Br1186   1.932       .  S
C1180      C1181   1.415       .  A
C1180     Br1185   1.934       .  S
C1181      C1182   1.414       .  A
C1182     Br1183   1.933       .  S
C1187      C1188   1.411       .  A
C1187      C1192   1.414       .  A
C1187     Br1194   1.928       .  S
C1188      C1189   1.412       .  A
C1189      C1190   1.404       .  A
C1189     Br1196   1.933       .  S
C1190      C1191   1.408       .  A
C1190     Br1195   1.933       .  S
C1191      C1192   1.412       .  A
C1192     Br1193   1.928       .  S
C1197      C1198   1.408       .  A
C1197      C1202   1.407       .  A
C1197     Br1204   1.931       .  S
C1198      C1199   1.408   1_655  A
C1199      C1200   1.407       .  A
C1199     Br1206   1.932       .  S
C1200      C1201   1.413   1_455  A
C1200     Br1205   1.931       .  S
C1201      C1202   1.411       .  A
C1202     Br1203   1.931       .  S
C1207      C1208   1.413       .  A
C1207      C1212   1.414       .  A
C1207     Br1214   1.927       .  S
C1208      C1209   1.411       .  A
C1209      C1210   1.405       .  A
C1209     Br1216   1.930       .  S
C1210      C1211   1.410       .  A
C1210     Br1215   1.931       .  S
C1211      C1212   1.410       .  A
C1212     Br1213   1.928       .  S
C1217      C1218   1.416   1_455  A
C1217      C1222   1.407       .  A
C1217     Br1224   1.937       .  S
C1218      C1219   1.414       .  A
C1219      C1220   1.408       .  A
C1219     Br1226   1.935       .  S
C1220      C1221   1.413       .  A
C1220     Br1225   1.936       .  S
C1221      C1222   1.415   1_655  A
C1222     Br1223   1.938       .  S
C1227      C1228   1.411       .  A
C1227      C1232   1.413       .  A
C1227     Br1234   1.930       .  S
C1228      C1229   1.412       .  A
C1229      C1230   1.407       .  A
C1229     Br1236   1.933       .  S
C1230      C1231   1.411       .  A
C1230     Br1235   1.933       .  S
C1231      C1232   1.414       .  A
C1232     Br1233   1.929       .  S
C1237      C1238   1.409   1_556  A
C1237      C1242   1.404       .  A
C1237     Br1244   1.933       .  S
C1238      C1239   1.409       .  A
C1239      C1240   1.403       .  A
C1239     Br1246   1.933       .  S
C1240      C1241   1.409       .  A
C1240     Br1245   1.931       .  S
C1241      C1242   1.410   1_554  A
C1242     Br1243   1.933       .  S
C1247      C1248   1.413       .  A
C1247      C1252   1.408       .  A
C1247     Br1254   1.933       .  S
C1248      C1249   1.413       .  A
C1249      C1250   1.414       .  A
C1249     Br1256   1.929       .  S
C1250      C1251   1.412       .  A
C1250     Br1255   1.929       .  S
C1251      C1252   1.408       .  A
C1252     Br1253   1.931       .  S
C1257      C1258   1.408       .  A
C1257      C1262   1.402       .  A
C1257     Br1264   1.931       .  S
C1258      C1259   1.410   1_556  A
C1259      C1260   1.405       .  A
C1259     Br1266   1.933       .  S
C1260      C1261   1.410   1_554  A
C1260     Br1265   1.933       .  S
C1261      C1262   1.407       .  A
C1262     Br1263   1.931       .  S
C1267      C1268   1.411       .  A
C1267      C1272   1.406       .  A
C1267     Br1274   1.938       .  S
C1268      C1269   1.410       .  A
C1269      C1270   1.413       .  A
C1269     Br1276   1.930       .  S
C1270      C1271   1.416       .  A
C1270     Br1275   1.930       .  S
C1271      C1272   1.416       .  A
C1272     Br1273   1.935       .  S
C1277      C1278   1.412       .  A
C1277      C1282   1.413       .  A
C1277     Br1284   1.931       .  S
C1278      C1279   1.416       .  A
C1279      C1280   1.410       .  A
C1279     Br1286   1.930       .  S
C1280      C1281   1.413       .  A
C1280     Br1285   1.937       .  S
C1281      C1282   1.415       .  A
C1282     Br1283   1.931       .  S
C1287      C1288   1.410       .  A
C1287      C1292   1.407       .  A
C1287     Br1294   1.930       .  S
C1288      C1289   1.409       .  A
C1289      C1290   1.409       .  A
C1289     Br1296   1.930       .  S
C1290      C1291   1.410       .  A
C1290     Br1295   1.928       .  S
C1291      C1292   1.411       .  A
C1292     Br1293   1.933       .  S
C1297      C1298   1.409       .  A
C1297      C1302   1.405       .  A
C1297     Br1304   1.932       .  S
C1298      C1299   1.413       .  A
C1299      C1300   1.412       .  A
C1299     Br1306   1.929       .  S
C1300      C1301   1.408       .  A
C1300     Br1305   1.927       .  S
C1301      C1302   1.410       .  A
C1302     Br1303   1.931       .  S
C1307      C1308   1.415       .  A
C1307      C1312   1.413       .  A
C1307     Br1314   1.930       .  S
C1308      C1309   1.414       .  A
C1309      C1310   1.409       .  A
C1309     Br1316   1.931       .  S
C1310      C1311   1.408       .  A
C1310     Br1315   1.931       .  S
C1311      C1312   1.410       .  A
C1312     Br1313   1.930       .  S
C1317      C1318   1.412       .  A
C1317      C1322   1.410       .  A
C1317     Br1324   1.933       .  S
C1318      C1319   1.412       .  A
C1319      C1320   1.411       .  A
C1319     Br1326   1.931       .  S
C1320      C1321   1.413       .  A
C1320     Br1325   1.932       .  S
C1321      C1322   1.413       .  A
C1322     Br1323   1.933       .  S
C1327      C1328   1.414       .  A
C1327      C1332   1.413       .  A
C1327     Br1334   1.933       .  S
C1328      C1329   1.414       .  A
C1329      C1330   1.412       .  A
C1329     Br1336   1.931       .  S
C1330      C1331   1.413       .  A
C1330     Br1335   1.932       .  S
C1331      C1332   1.414       .  A
C1332     Br1333   1.931       .  S
C1337      C1338   1.408       .  A
C1337      C1342   1.406       .  A
C1337     Br1344   1.931       .  S
C1338      C1339   1.410       .  A
C1339      C1340   1.410       .  A
C1339     Br1346   1.928       .  S
C1340      C1341   1.409       .  A
C1340     Br1345   1.929       .  S
C1341      C1342   1.411       .  A
C1342     Br1343   1.932       .  S
C1347      C1348   1.407       .  A
C1347      C1352   1.411       .  A
C1347     Br1354   1.932       .  S
C1348      C1349   1.407       .  A
C1349      C1350   1.413       .  A
C1349     Br1356   1.931       .  S
C1350      C1351   1.420       .  A
C1350     Br1355   1.931       .  S
C1351      C1352   1.418       .  A
C1352     Br1353   1.933       .  S
C1357      C1358   1.415       .  A
C1357      C1362   1.410       .  A
C1357     Br1364   1.933       .  S
C1358      C1359   1.414       .  A
C1359      C1360   1.411       .  A
C1359     Br1366   1.935       .  S
C1360      C1361   1.416       .  A
C1360     Br1365   1.934       .  S
C1361      C1362   1.412       .  A
C1362     Br1363   1.933       .  S
C1367      C1368   1.408       .  A
C1367      C1372   1.410       .  A
C1367     Br1374   1.930       .  S
C1368      C1369   1.410       .  A
C1369      C1370   1.406       .  A
C1369     Br1376   1.934       .  S
C1370      C1371   1.411       .  A
C1370     Br1375   1.932       .  S
C1371      C1372   1.413       .  A
C1372     Br1373   1.930       .  S
C1377      C1378   1.406       .  A
C1377      C1382   1.403       .  A
C1377     Br1384   1.931       .  S
C1378      C1379   1.406   1_545  A
C1379      C1380   1.404       .  A
C1379     Br1386   1.932       .  S
C1380      C1381   1.411       .  A
C1380     Br1385   1.931       .  S
C1381      C1382   1.410   1_565  A
C1382     Br1383   1.931       .  S
C1387      C1388   1.409       .  A
C1387      C1392   1.409       .  A
C1387     Br1394   1.928       .  S
C1388      C1389   1.411       .  A
C1389      C1390   1.410       .  A
C1389     Br1396   1.928       .  S
C1390      C1391   1.410       .  A
C1390     Br1395   1.930       .  S
C1391      C1392   1.410       .  A
C1392     Br1393   1.927       .  S
C1397      C1398   1.408       .  A
C1397      C1402   1.406       .  A
C1397     Br1404   1.928       .  S
C1398      C1399   1.409   1_565  A
C1399      C1400   1.403       .  A
C1399     Br1406   1.931       .  S
C1400      C1401   1.408   1_545  A
C1400     Br1405   1.933       .  S
C1401      C1402   1.408       .  A
C1402     Br1403   1.930       .  S
C1407      C1408   1.416       .  A
C1407      C1412   1.405       .  A
C1407     Br1414   1.937       .  S
C1408      C1409   1.412       .  A
C1409      C1410   1.413       .  A
C1409     Br1416   1.928       .  S
C1410      C1411   1.412       .  A
C1410     Br1415   1.931       .  S
C1411      C1412   1.411       .  A
C1412     Br1413   1.935       .  S
C1417      C1418   1.410   1_556  A
C1417      C1422   1.404       .  A
C1417     Br1424   1.932       .  S
C1418      C1419   1.409       .  A
C1419      C1420   1.404       .  A
C1419     Br1426   1.931       .  S
C1420      C1421   1.409       .  A
C1420     Br1425   1.932       .  S
C1421      C1422   1.410   1_554  A
C1422     Br1423   1.933       .  S
C1427      C1428   1.409       .  A
C1427      C1432   1.404       .  A
C1427     Br1434   1.934       .  S
C1428      C1429   1.409       .  A
C1429      C1430   1.412       .  A
C1429     Br1436   1.928       .  S
C1430      C1431   1.413       .  A
C1430     Br1435   1.930       .  S
C1431      C1432   1.409       .  A
C1432     Br1433   1.925       .  S
C1437      C1438   1.410   1_556  A
C1437      C1442   1.406       .  A
C1437     Br1444   1.933       .  S
C1438      C1439   1.413       .  A
C1439      C1440   1.403       .  A
C1439     Br1446   1.934       .  S
C1440      C1441   1.408       .  A
C1440     Br1445   1.934       .  S
C1441      C1442   1.413   1_554  A
C1442     Br1443   1.934       .  S
C1447      C1448   1.410       .  A
C1447      C1452   1.412       .  A
C1447     Br1454   1.929       .  S
C1448      C1449   1.407       .  A
C1449      C1450   1.408       .  A
C1449     Br1456   1.929       .  S
C1450      C1451   1.411       .  A
C1450     Br1455   1.929       .  S
C1451      C1452   1.412       .  A
C1452     Br1453   1.930       .  S
C1457      C1458   1.414       .  A
C1457      C1462   1.412       .  A
C1457     Br1464   1.932       .  S
C1458      C1459   1.416       .  A
C1459      C1460   1.412       .  A
C1459     Br1466   1.932       .  S
C1460      C1461   1.412       .  A
C1460     Br1465   1.935       .  S
C1461      C1462   1.412       .  A
C1462     Br1463   1.931       .  S
C1467      C1468   1.412       .  A
C1467      C1472   1.407       .  A
C1467     Br1474   1.926       .  S
C1468      C1469   1.415       .  A
C1469      C1470   1.413       .  A
C1469     Br1476   1.930       .  S
C1470      C1471   1.410       .  A
C1470     Br1475   1.926       .  S
C1471      C1472   1.407       .  A
C1472     Br1473   1.931       .  S
C1477      C1478   1.415       .  A
C1477      C1482   1.414       .  A
C1477     Br1484   1.931       .  S
C1478      C1479   1.413       .  A
C1479      C1480   1.408       .  A
C1479     Br1486   1.932       .  S
C1480      C1481   1.410       .  A
C1480     Br1485   1.933       .  S
C1481      C1482   1.412       .  A
C1482     Br1483   1.932       .  S
C1487      C1488   1.414       .  A
C1487      C1492   1.414       .  A
C1487     Br1494   1.931       .  S
C1488      C1489   1.415       .  A
C1489      C1490   1.413       .  A
C1489     Br1496   1.934       .  S
C1490      C1491   1.415       .  A
C1490     Br1495   1.933       .  S
C1491      C1492   1.414       .  A
C1492     Br1493   1.932       .  S
C1497      C1498   1.407       .  A
C1497      C1502   1.406       .  A
C1497     Br1504   1.931       .  S
C1498      C1499   1.409       .  A
C1499      C1500   1.411       .  A
C1499     Br1506   1.928       .  S
C1500      C1501   1.411       .  A
C1500     Br1505   1.929       .  S
C1501      C1502   1.412       .  A
C1502     Br1503   1.931       .  S
C1507      C1508   1.410       .  A
C1507      C1512   1.409       .  A
C1507     Br1514   1.928       .  S
C1508      C1509   1.412       .  A
C1509      C1510   1.407       .  A
C1509     Br1516   1.929       .  S
C1510      C1511   1.406       .  A
C1510     Br1515   1.929       .  S
C1511      C1512   1.407       .  A
C1512     Br1513   1.929       .  S
C1517      C1518   1.416       .  A
C1517      C1522   1.411       .  A
C1517     Br1524   1.934       .  S
C1518      C1519   1.411       .  A
C1519      C1520   1.409       .  A
C1519     Br1526   1.931       .  S
C1520      C1521   1.412       .  A
C1520     Br1525   1.931       .  S
C1521      C1522   1.413       .  A
C1522     Br1523   1.934       .  S
C1527      C1528   1.412       .  A
C1527      C1532   1.413       .  A
C1527     Br1534   1.931       .  S
C1528      C1529   1.411       .  A
C1529      C1530   1.408       .  A
C1529     Br1536   1.933       .  S
C1530      C1531   1.413       .  A
C1530     Br1535   1.934       .  S
C1531      C1532   1.414       .  A
C1532     Br1533   1.932       .  S
C1537      C1538   1.413       .  A
C1537      C1542   1.415       .  A
C1537     Br1544   1.931       .  S
C1538      C1539   1.412       .  A
C1539      C1540   1.409       .  A
C1539     Br1546   1.933       .  S
C1540      C1541   1.415       .  A
C1540     Br1545   1.932       .  S
C1541      C1542   1.415       .  A
C1542     Br1543   1.931       .  S
C1547      C1548   1.410       .  A
C1547      C1552   1.411       .  A
C1547     Br1554   1.931       .  S
C1548      C1549   1.408       .  A
C1549      C1550   1.408       .  A
C1549     Br1556   1.926       .  S
C1550      C1551   1.411       .  A
C1550     Br1555   1.931       .  S
C1551      C1552   1.412       .  A
C1552     Br1553   1.928       .  S
C1557      C1558   1.413       .  A
C1557      C1562   1.412       .  A
C1557     Br1564   1.932       .  S
C1558      C1559   1.414       .  A
C1559      C1560   1.413       .  A
C1559     Br1566   1.933       .  S
C1560      C1561   1.413       .  A
C1560     Br1565   1.932       .  S
C1561      C1562   1.412       .  A
C1562     Br1563   1.930       .  S
C1567      C1568   1.411       .  A
C1567      C1572   1.410       .  A
C1567     Br1574   1.929       .  S
C1568      C1569   1.413       .  A
C1569      C1570   1.412       .  A
C1569     Br1576   1.932       .  S
C1570      C1571   1.413       .  A
C1570     Br1575   1.932       .  S
C1571      C1572   1.410       .  A
C1572     Br1573   1.930       .  S
C1577      C1578   1.416       .  A
C1577      C1582   1.412       .  A
C1577     Br1584   1.934       .  S
C1578      C1579   1.413       .  A
C1579      C1580   1.414       .  A
C1579     Br1586   1.931       .  S
C1580      C1581   1.415       .  A
C1580     Br1585   1.931       .  S
C1581      C1582   1.413       .  A
C1582     Br1583   1.934       .  S
C1587      C1588   1.409       .  A
C1587      C1592   1.404       .  A
C1587     Br1594   1.932       .  S
C1588      C1589   1.410   1_556  A
C1589      C1590   1.405       .  A
C1589     Br1596   1.932       .  S
C1590      C1591   1.412   1_554  A
C1590     Br1595   1.934       .  S
C1591      C1592   1.410       .  A
C1592     Br1593   1.933       .  S
C1597      C1598   1.415       .  A
C1597      C1602   1.406       .  A
C1597     Br1604   1.932       .  S
C1598      C1599   1.414       .  A
C1599      C1600   1.414       .  A
C1599     Br1606   1.929       .  S
C1600      C1601   1.411       .  A
C1600     Br1605   1.928       .  S
C1601      C1602   1.407       .  A
C1602     Br1603   1.932       .  S
C1607      C1608   1.410   1_556  A
C1607      C1612   1.405       .  A
C1607     Br1614   1.933       .  S
C1608      C1609   1.410       .  A
C1609      C1610   1.405       .  A
C1609     Br1616   1.930       .  S
C1610      C1611   1.408       .  A
C1610     Br1615   1.932       .  S
C1611      C1612   1.409   1_554  A
C1612     Br1613   1.931       .  S
C1617      C1618   1.414       .  A
C1617      C1622   1.405       .  A
C1617     Br1624   1.929       .  S
C1618      C1619   1.413       .  A
C1619      C1620   1.410       .  A
C1619     Br1626   1.930       .  S
C1620      C1621   1.409       .  A
C1620     Br1625   1.930       .  S
C1621      C1622   1.407       .  A
C1622     Br1623   1.934       .  S
C1627      C1628   1.415       .  A
C1627      C1632   1.407       .  A
C1627     Br1634   1.932       .  S
C1628      C1629   1.409       .  A
C1629      C1630   1.402       .  A
C1629     Br1636   1.935   1_556  S
C1630      C1631   1.415       .  A
C1630     Br1635   1.937   1_556  S
C1631      C1632   1.408       .  A
C1632     Br1633   1.934       .  S
C1637      C1638   1.412       .  A
C1637      C1642   1.415       .  A
C1637     Br1644   1.932       .  S
C1638      C1639   1.412       .  A
C1639      C1640   1.410       .  A
C1639     Br1646   1.937       .  S
C1640      C1641   1.417       .  A
C1640     Br1645   1.932       .  S
C1641      C1642   1.416       .  A
C1642     Br1643   1.930       .  S
C1647      C1648   1.414       .  A
C1647      C1652   1.412       .  A
C1647     Br1654   1.933       .  S
C1648      C1649   1.416       .  A
C1649      C1650   1.416       .  A
C1649     Br1656   1.931       .  S
C1650      C1651   1.414       .  A
C1650     Br1655   1.932       .  S
C1651      C1652   1.414       .  A
C1652     Br1653   1.933       .  S
C1657      C1658   1.414       .  A
C1657      C1662   1.410       .  A
C1657     Br1664   1.933       .  S
C1658      C1659   1.413       .  A
C1659      C1660   1.413       .  A
C1659     Br1666   1.930       .  S
C1660      C1661   1.413       .  A
C1660     Br1665   1.930       .  S
C1661      C1662   1.411       .  A
C1662     Br1663   1.933       .  S
C1667      C1668   1.414       .  A
C1667      C1672   1.409       .  A
C1667     Br1674   1.932       .  S
C1668      C1669   1.414       .  A
C1669      C1670   1.415       .  A
C1669     Br1676   1.929       .  S
C1670      C1671   1.412       .  A
C1670     Br1675   1.929       .  S
C1671      C1672   1.412       .  A
C1672     Br1673   1.934       .  S
C1677      C1678   1.421       .  A
C1677      C1682   1.417       .  A
C1677     Br1684   1.929       .  S
C1678      C1679   1.415       .  A
C1679      C1680   1.411       .  A
C1679     Br1686   1.936       .  S
C1680      C1681   1.415       .  A
C1680     Br1685   1.931       .  S
C1681      C1682   1.411       .  A
C1682     Br1683   1.930       .  S
C1687      C1688   1.413       .  A
C1687      C1692   1.410       .  A
C1687     Br1694   1.934       .  S
C1688      C1689   1.413       .  A
C1689      C1690   1.414       .  A
C1689     Br1696   1.931       .  S
C1690      C1691   1.413       .  A
C1690     Br1695   1.931       .  S
C1691      C1692   1.413       .  A
C1692     Br1693   1.932       .  S
C1697      C1698   1.415       .  A
C1697      C1702   1.415       .  A
C1697     Br1704   1.933       .  S
C1698      C1699   1.415       .  A
C1699      C1700   1.413       .  A
C1699     Br1706   1.932       .  S
C1700      C1701   1.413       .  A
C1700     Br1705   1.933       .  S
C1701      C1702   1.414       .  A
C1702     Br1703   1.931       .  S
C1707      C1708   1.416       .  A
C1707      C1712   1.415       .  A
C1707     Br1714   1.933       .  S
C1708      C1709   1.413       .  A
C1709      C1710   1.413       .  A
C1709     Br1716   1.933       .  S
C1710      C1711   1.415       .  A
C1710     Br1715   1.932       .  S
C1711      C1712   1.413       .  A
C1712     Br1713   1.932       .  S
C1717      C1718   1.413       .  A
C1717      C1722   1.408       .  A
C1717     Br1724   1.935       .  S
C1718      C1719   1.414       .  A
C1719      C1720   1.411       .  A
C1719     Br1726   1.931       .  S
C1720      C1721   1.413       .  A
C1720     Br1725   1.932       .  S
C1721      C1722   1.412       .  A
C1722     Br1723   1.932       .  S
C1727      C1728   1.411       .  A
C1727      C1732   1.413       .  A
C1727     Br1734   1.930       .  S
C1728      C1729   1.409       .  A
C1729      C1730   1.407       .  A
C1729     Br1736   1.931       .  S
C1730      C1731   1.411       .  A
C1730     Br1735   1.931       .  S
C1731      C1732   1.412       .  A
C1732     Br1733   1.927       .  S
C1737      C1738   1.409       .  A
C1737      C1742   1.410       .  A
C1737     Br1744   1.930       .  S
C1738      C1739   1.409       .  A
C1739      C1740   1.413       .  A
C1739     Br1746   1.929       .  S
C1740      C1741   1.413       .  A
C1740     Br1745   1.930       .  S
C1741      C1742   1.411       .  A
C1742     Br1743   1.930       .  S
C1747      C1748   1.411       .  A
C1747      C1752   1.408       .  A
C1747     Br1754   1.933       .  S
C1748      C1749   1.412       .  A
C1749      C1750   1.405       .  A
C1749     Br1756   1.933   1_655  S
C1750      C1751   1.411       .  A
C1750     Br1755   1.935   1_655  S
C1751      C1752   1.413       .  A
C1752     Br1753   1.933       .  S
C1757      C1758   1.413       .  A
C1757      C1762   1.406       .  A
C1757     Br1764   1.937       .  S
C1758      C1759   1.416       .  A
C1759      C1760   1.421       .  A
C1759     Br1766   1.928       .  S
C1760      C1761   1.416       .  A
C1760     Br1765   1.929       .  S
C1761      C1762   1.414       .  A
C1762     Br1763   1.935       .  S
C1767      C1768   1.414       .  A
C1767      C1772   1.403       .  A
C1767     Br1774   1.936       .  S
C1768      C1769   1.411   1_655  A
C1769      C1770   1.405       .  A
C1769     Br1776   1.934       .  S
C1770      C1771   1.413   1_455  A
C1770     Br1775   1.934       .  S
C1771      C1772   1.412       .  A
C1772     Br1773   1.937       .  S
C1777      C1778   1.412       .  A
C1777      C1782   1.411       .  A
C1777     Br1784   1.929       .  S
C1778      C1779   1.410       .  A
C1779      C1780   1.407       .  A
C1779     Br1786   1.932       .  S
C1780      C1781   1.412       .  A
C1780     Br1785   1.932       .  S
C1781      C1782   1.410       .  A
C1782     Br1783   1.930       .  S
C1787      C1788   1.414       .  A
C1787      C1792   1.408       .  A
C1787     Br1794   1.934       .  S
C1788      C1789   1.411       .  A
C1789      C1790   1.404       .  A
C1789     Br1796   1.938   1_565  S
C1790      C1791   1.417       .  A
C1790     Br1795   1.937   1_565  S
C1791      C1792   1.411       .  A
C1792     Br1793   1.933       .  S
C1797      C1798   1.411       .  A
C1797      C1802   1.407       .  A
C1797     Br1804   1.932       .  S
C1798      C1799   1.411       .  A
C1799      C1800   1.413       .  A
C1799     Br1806   1.928       .  S
C1800      C1801   1.412       .  A
C1800     Br1805   1.928       .  S
C1801      C1802   1.410       .  A
C1802     Br1803   1.932       .  S
C1807      C1808   1.414       .  A
C1807      C1812   1.408       .  A
C1807     Br1814   1.933       .  S
C1808      C1809   1.413   1_565  A
C1809      C1810   1.403       .  A
C1809     Br1816   1.936       .  S
C1810      C1811   1.411       .  A
C1810     Br1815   1.936       .  S
C1811      C1812   1.411   1_545  A
C1812     Br1813   1.934       .  S
C1817      C1818   1.409       .  A
C1817      C1822   1.410       .  A
C1817     Br1824   1.929       .  S
C1818      C1819   1.408       .  A
C1819      C1820   1.410       .  A
C1819     Br1826   1.929       .  S
C1820      C1821   1.412       .  A
C1820     Br1825   1.931       .  S
C1821      C1822   1.412       .  A
C1822     Br1823   1.932       .  S
C1827      C1828   1.410       .  A
C1827      C1832   1.405       .  A
C1827     Br1834   1.933       .  S
C1828      C1829   1.414       .  A
C1829      C1830   1.413       .  A
C1829     Br1836   1.929       .  S
C1830      C1831   1.411       .  A
C1830     Br1835   1.929       .  S
C1831      C1832   1.411       .  A
C1832     Br1833   1.933       .  S
C1837      C1838   1.412       .  A
C1837      C1842   1.411       .  A
C1837     Br1844   1.931       .  S
C1838      C1839   1.413       .  A
C1839      C1840   1.415       .  A
C1839     Br1846   1.930       .  S
C1840      C1841   1.412       .  A
C1840     Br1845   1.929       .  S
C1841      C1842   1.412       .  A
C1842     Br1843   1.931       .  S
C1847      C1848   1.411       .  A
C1847      C1852   1.412       .  A
C1847     Br1854   1.930       .  S
C1848      C1849   1.411       .  A
C1849      C1850   1.411       .  A
C1849     Br1856   1.931       .  S
C1850      C1851   1.414       .  A
C1850     Br1855   1.933       .  S
C1851      C1852   1.412       .  A
C1852     Br1853   1.930       .  S
C1857      C1858   1.410       .  A
C1857      C1862   1.412       .  A
C1857     Br1864   1.929       .  S
C1858      C1859   1.411       .  A
C1859      C1860   1.413       .  A
C1859     Br1866   1.931       .  S
C1860      C1861   1.415       .  A
C1860     Br1865   1.931       .  S
C1861      C1862   1.413       .  A
C1862     Br1863   1.930       .  S
C1867      C1868   1.416       .  A
C1867      C1872   1.412       .  A
C1867     Br1874   1.929       .  S
C1868      C1869   1.412       .  A
C1869      C1870   1.406       .  A
C1869     Br1876   1.933       .  S
C1870      C1871   1.408       .  A
C1870     Br1875   1.932       .  S
C1871      C1872   1.409       .  A
C1872     Br1873   1.931       .  S
C1877      C1878   1.411       .  A
C1877      C1882   1.412       .  A
C1877     Br1884   1.931       .  S
C1878      C1879   1.414       .  A
C1879      C1880   1.410       .  A
C1879     Br1886   1.935       .  S
C1880      C1881   1.414       .  A
C1880     Br1885   1.934       .  S
C1881      C1882   1.413       .  A
C1882     Br1883   1.930       .  S
C1887      C1888   1.412       .  A
C1887      C1892   1.402       .  A
C1887     Br1894   1.936       .  S
C1888      C1889   1.416       .  A
C1889      C1890   1.419       .  A
C1889     Br1896   1.928       .  S
C1890      C1891   1.412       .  A
C1890     Br1895   1.928       .  S
C1891      C1892   1.412       .  A
C1892     Br1893   1.937       .  S
C1897      C1898   1.416       .  A
C1897      C1902   1.415       .  A
C1897     Br1904   1.929       .  S
C1898      C1899   1.416       .  A
C1899      C1900   1.414       .  A
C1899     Br1906   1.932       .  S
C1900      C1901   1.415       .  A
C1900     Br1905   1.935       .  S
C1901      C1902   1.412       .  A
C1902     Br1903   1.932       .  S
C1907      C1908   1.415       .  A
C1907      C1912   1.412       .  A
C1907     Br1914   1.931       .  S
C1908      C1909   1.416       .  A
C1909      C1910   1.416       .  A
C1909     Br1916   1.929       .  S
C1910      C1911   1.412       .  A
C1910     Br1915   1.930       .  S
C1911      C1912   1.413       .  A
C1912     Br1913   1.934       .  S
C1917      C1918   1.412       .  A
C1917      C1922   1.415       .  A
C1917     Br1924   1.927       .  S
C1918      C1919   1.414       .  A
C1919      C1920   1.406       .  A
C1919     Br1926   1.931       .  S
C1920      C1921   1.409       .  A
C1920     Br1925   1.935       .  S
C1921      C1922   1.414       .  A
C1922     Br1923   1.929       .  S
C1927      C1928   1.414       .  A
C1927      C1932   1.412       .  A
C1927     Br1934   1.935       .  S
C1928      C1929   1.416       .  A
C1929      C1930   1.416       .  A
C1929     Br1936   1.930       .  S
C1930      C1931   1.413       .  A
C1930     Br1935   1.931       .  S
C1931      C1932   1.415       .  A
C1932     Br1933   1.933       .  S
C1937      C1938   1.421       .  A
C1937      C1942   1.411       .  A
C1937     Br1944   1.933       .  S
C1938      C1939   1.413       .  A
C1939      C1940   1.415       .  A
C1939     Br1946   1.932       .  S
C1940      C1941   1.416       .  A
C1940     Br1945   1.932       .  S
C1941      C1942   1.410       .  A
C1942     Br1943   1.936       .  S
C1947      C1948   1.415       .  A
C1947      C1952   1.415       .  A
C1947     Br1954   1.936       .  S
C1948      C1949   1.417       .  A
C1949      C1950   1.417       .  A
C1949     Br1956   1.933       .  S
C1950      C1951   1.416       .  A
C1950     Br1955   1.932       .  S
C1951      C1952   1.420       .  A
C1952     Br1953   1.933       .  S
C1957      C1958   1.411   1_455  A
C1957      C1962   1.407       .  A
C1957     Br1964   1.932       .  S
C1958      C1959   1.410       .  A
C1959      C1960   1.402       .  A
C1959     Br1966   1.936       .  S
C1960      C1961   1.412       .  A
C1960     Br1965   1.935       .  S
C1961      C1962   1.411   1_655  A
C1962     Br1963   1.933       .  S
C1967      C1968   1.409       .  A
C1967      C1972   1.409       .  A
C1967     Br1974   1.930       .  S
C1968      C1969   1.409       .  A
C1969      C1970   1.411       .  A
C1969     Br1976   1.929       .  S
C1970      C1971   1.411       .  A
C1970     Br1975   1.929       .  S
C1971      C1972   1.408       .  A
C1972     Br1973   1.926       .  S
C1977      C1978   1.410   1_455  A
C1977      C1982   1.406       .  A
C1977     Br1984   1.933       .  S
C1978      C1979   1.414       .  A
C1979      C1980   1.408       .  A
C1979     Br1986   1.932       .  S
C1980      C1981   1.409       .  A
C1980     Br1985   1.934       .  S
C1981      C1982   1.414   1_655  A
C1982     Br1983   1.932       .  S
C1987      C1988   1.408       .  A
C1987      C1992   1.415       .  A
C1987     Br1994   1.928       .  S
C1988      C1989   1.409       .  A
C1989      C1990   1.409       .  A
C1989     Br1996   1.933       .  S
C1990      C1991   1.413       .  A
C1990     Br1995   1.930       .  S
C1991      C1992   1.416       .  A
C1992     Br1993   1.928       .  S
C1997      C1998   1.411       .  A
C1997      C2002   1.405       .  A
C1997     Br2004   1.928       .  S
C1998      C1999   1.413   1_655  A
C1999      C2000   1.406       .  A
C1999     Br2006   1.933       .  S
C2000      C2001   1.409   1_455  A
C2000     Br2005   1.933       .  S
C2001      C2002   1.411       .  A
C2002     Br2003   1.935       .  S
C2007      C2008   1.412       .  A
C2007      C2012   1.414       .  A
C2007     Br2014   1.932       .  S
C2008      C2009   1.412       .  A
C2009      C2010   1.406       .  A
C2009     Br2016   1.929       .  S
C2010      C2011   1.412       .  A
C2010     Br2015   1.935       .  S
C2011      C2012   1.416       .  A
C2012     Br2013   1.930       .  S
C2017      C2018   1.415       .  A
C2017      C2022   1.414       .  A
C2017     Br2024   1.930       .  S
C2018      C2019   1.414       .  A
C2019      C2020   1.407       .  A
C2019     Br2026   1.933       .  S
C2020      C2021   1.410       .  A
C2020     Br2025   1.934       .  S
C2021      C2022   1.412       .  A
C2022     Br2023   1.930       .  S
C2027      C2028   1.411       .  A
C2027      C2032   1.409       .  A
C2027     Br2034   1.933       .  S
C2028      C2029   1.412       .  A
C2029      C2030   1.413       .  A
C2029     Br2036   1.928       .  S
C2030      C2031   1.411       .  A
C2030     Br2035   1.929       .  S
C2031      C2032   1.413       .  A
C2032     Br2033   1.934       .  S
C2037      C2038   1.411       .  A
C2037      C2042   1.410       .  A
C2037     Br2044   1.931       .  S
C2038      C2039   1.410       .  A
C2039      C2040   1.409       .  A
C2039     Br2046   1.932       .  S
C2040      C2041   1.412       .  A
C2040     Br2045   1.932       .  S
C2041      C2042   1.411       .  A
C2042     Br2043   1.930       .  S
C2047      C2048   1.413       .  A
C2047      C2052   1.409       .  A
C2047     Br2054   1.935       .  S
C2048      C2049   1.413       .  A
C2049      C2050   1.412       .  A
C2049     Br2056   1.931       .  S
C2050      C2051   1.415       .  A
C2050     Br2055   1.933       .  S
C2051      C2052   1.413       .  A
C2052     Br2053   1.934       .  S
C2057      C2058   1.410       .  A
C2057      C2062   1.408       .  A
C2057     Br2064   1.930       .  S
C2058      C2059   1.410       .  A
C2059      C2060   1.410       .  A
C2059     Br2066   1.929       .  S
C2060      C2061   1.407       .  A
C2060     Br2065   1.923       .  S
C2061      C2062   1.409       .  A
C2062     Br2063   1.930       .  S
C2067      C2068   1.412       .  A
C2067      C2072   1.415       .  A
C2067     Br2074   1.928       .  S
C2068      C2069   1.412       .  A
C2069      C2070   1.409       .  A
C2069     Br2076   1.935       .  S
C2070      C2071   1.415       .  A
C2070     Br2075   1.935       .  S
C2071      C2072   1.414       .  A
C2072     Br2073   1.930       .  S
C2077      C2078   1.411       .  A
C2077      C2082   1.413       .  A
C2077     Br2084   1.931       .  S
C2078      C2079   1.411       .  A
C2079      C2080   1.410       .  A
C2079     Br2086   1.934       .  S
C2080      C2081   1.417       .  A
C2080     Br2085   1.935       .  S
C2081      C2082   1.415       .  A
C2082     Br2083   1.931       .  S
C2087      C2088   1.413       .  A
C2087      C2092   1.411       .  A
C2087     Br2094   1.930       .  S
C2088      C2089   1.411       .  A
C2089      C2090   1.406       .  A
C2089     Br2096   1.931       .  S
C2090      C2091   1.408       .  A
C2090     Br2095   1.930       .  S
C2091      C2092   1.410       .  A
C2092     Br2093   1.931       .  S
C2097      C2098   1.414       .  A
C2097      C2102   1.411       .  A
C2097     Br2104   1.935       .  S
C2098      C2099   1.413       .  A
C2099      C2100   1.414       .  A
C2099     Br2106   1.930       .  S
C2100      C2101   1.414       .  A
C2100     Br2105   1.930       .  S
C2101      C2102   1.414       .  A
C2102     Br2103   1.933       .  S
C2107      C2108   1.414       .  A
C2107      C2112   1.412       .  A
C2107     Br2114   1.930       .  S
C2108      C2109   1.410       .  A
C2109      C2110   1.404       .  A
C2109     Br2116   1.926       .  S
C2110      C2111   1.407       .  A
C2110     Br2115   1.932       .  S
C2111      C2112   1.409       .  A
C2112     Br2113   1.928       .  S
C2117      C2118   1.412       .  A
C2117      C2122   1.409       .  A
C2117     Br2124   1.933       .  S
C2118      C2119   1.414       .  A
C2119      C2120   1.413       .  A
C2119     Br2126   1.933       .  S
C2120      C2121   1.413       .  A
C2120     Br2125   1.931       .  S
C2121      C2122   1.412       .  A
C2122     Br2123   1.932       .  S
C2127      C2128   1.412       .  A
C2127      C2132   1.406       .  A
C2127     Br2134   1.936       .  S
C2128      C2129   1.413       .  A
C2129      C2130   1.413       .  A
C2129     Br2136   1.931       .  S
C2130      C2131   1.412       .  A
C2130     Br2135   1.929       .  S
C2131      C2132   1.413       .  A
C2132     Br2133   1.936       .  S
C2137      C2138   1.409       .  A
C2137      C2142   1.404       .  A
C2137     Br2144   1.935       .  S
C2138      C2139   1.412       .  A
C2139      C2140   1.415       .  A
C2139     Br2146   1.929       .  S
C2140      C2141   1.414       .  A
C2140     Br2145   1.928       .  S
C2141      C2142   1.416       .  A
C2142     Br2143   1.936       .  S
C2147      C2148   1.410       .  A
C2147      C2152   1.406       .  A
C2147     Br2154   1.930       .  S
C2148      C2149   1.410   1_565  A
C2149      C2150   1.404       .  A
C2149     Br2156   1.935       .  S
C2150      C2151   1.412   1_545  A
C2150     Br2155   1.932       .  S
C2151      C2152   1.410       .  A
C2152     Br2153   1.932       .  S
C2157      C2158   1.415       .  A
C2157      C2162   1.406       .  A
C2157     Br2164   1.931       .  S
C2158      C2159   1.413       .  A
C2159      C2160   1.416       .  A
C2159     Br2166   1.929       .  S
C2160      C2161   1.414       .  A
C2160     Br2165   1.929       .  S
C2161      C2162   1.411       .  A
C2162     Br2163   1.937       .  S
C2167      C2168   1.412   1_565  A
C2167      C2172   1.406       .  A
C2167     Br2174   1.934       .  S
C2168      C2169   1.408       .  A
C2169      C2170   1.402       .  A
C2169     Br2176   1.930       .  S
C2170      C2171   1.413       .  A
C2170     Br2175   1.936       .  S
C2171      C2172   1.411   1_545  A
C2172     Br2173   1.932       .  S
C2177      C2178   1.412       .  A
C2177      C2182   1.402       .  A
C2177     Br2184   1.940       .  S
C2178      C2179   1.411       .  A
C2179      C2180   1.414       .  A
C2179     Br2186   1.929       .  S
C2180      C2181   1.417       .  A
C2180     Br2185   1.931       .  S
C2181      C2182   1.415       .  A
C2182     Br2183   1.936       .  S
C2187      C2188   1.409   1_545  A
C2187      C2192   1.403       .  A
C2187     Br2194   1.933       .  S
C2188      C2189   1.408       .  A
C2189      C2190   1.405       .  A
C2189     Br2196   1.931       .  S
C2190      C2191   1.410       .  A
C2190     Br2195   1.931       .  S
C2191      C2192   1.408   1_565  A
C2192     Br2193   1.933       .  S
C2197      C2198   1.411       .  A
C2197      C2202   1.407       .  A
C2197     Br2204   1.933       .  S
C2198      C2199   1.412       .  A
C2199      C2200   1.411       .  A
C2199     Br2206   1.930       .  S
C2200      C2201   1.412       .  A
C2200     Br2205   1.932       .  S
C2201      C2202   1.412       .  A
C2202     Br2203   1.932       .  S
C2207      C2208   1.410       .  A
C2207      C2212   1.405       .  A
C2207     Br2214   1.931       .  S
C2208      C2209   1.411       .  A
C2209      C2210   1.411       .  A
C2209     Br2216   1.928       .  S
C2210      C2211   1.409       .  A
C2210     Br2215   1.929       .  S
C2211      C2212   1.408       .  A
C2212     Br2213   1.933       .  S
C2217      C2218   1.413       .  A
C2217      C2222   1.413       .  A
C2217     Br2224   1.931       .  S
C2218      C2219   1.414       .  A
C2219      C2220   1.409       .  A
C2219     Br2226   1.933       .  S
C2220      C2221   1.411       .  A
C2220     Br2225   1.934       .  S
C2221      C2222   1.413       .  A
C2222     Br2223   1.929       .  S
C2227      C2228   1.413       .  A
C2227      C2232   1.409       .  A
C2227     Br2234   1.934       .  S
C2228      C2229   1.413       .  A
C2229      C2230   1.410       .  A
C2229     Br2236   1.931       .  S
C2230      C2231   1.411       .  A
C2230     Br2235   1.931       .  S
C2231      C2232   1.412       .  A
C2232     Br2233   1.934       .  S
C2237      C2238   1.409       .  A
C2237      C2242   1.406       .  A
C2237     Br2244   1.937       .  S
C2238      C2239   1.414       .  A
C2239      C2240   1.413       .  A
C2239     Br2246   1.930       .  S
C2240      C2241   1.411       .  A
C2240     Br2245   1.929       .  S
C2241      C2242   1.417       .  A
C2242     Br2243   1.934       .  S
C2247      C2248   1.415       .  A
C2247      C2252   1.410       .  A
C2247     Br2254   1.935       .  S
C2248      C2249   1.414       .  A
C2249      C2250   1.416       .  A
C2249     Br2256   1.930       .  S
C2250      C2251   1.414       .  A
C2250     Br2255   1.930       .  S
C2251      C2252   1.414       .  A
C2252     Br2253   1.935       .  S
C2257      C2258   1.415       .  A
C2257      C2262   1.413       .  A
C2257     Br2264   1.932       .  S
C2258      C2259   1.413       .  A
C2259      C2260   1.411       .  A
C2259     Br2266   1.931       .  S
C2260      C2261   1.411       .  A
C2260     Br2265   1.932       .  S
C2261      C2262   1.412       .  A
C2262     Br2263   1.931       .  S
C2267      C2268   1.408       .  A
C2267      C2272   1.408       .  A
C2267     Br2274   1.929       .  S
C2268      C2269   1.408       .  A
C2269      C2270   1.410       .  A
C2269     Br2276   1.930       .  S
C2270      C2271   1.411       .  A
C2270     Br2275   1.929       .  S
C2271      C2272   1.408       .  A
C2272     Br2273   1.929       .  S
C2277      C2278   1.412       .  A
C2277      C2282   1.410       .  A
C2277     Br2284   1.933       .  S
C2278      C2279   1.410       .  A
C2279      C2280   1.413       .  A
C2279     Br2286   1.931       .  S
C2280      C2281   1.415       .  A
C2280     Br2285   1.931       .  S
C2281      C2282   1.413       .  A
C2282     Br2283   1.932       .  S
C2287      C2288   1.415       .  A
C2287      C2292   1.412       .  A
C2287     Br2294   1.932       .  S
C2288      C2289   1.416       .  A
C2289      C2290   1.410       .  A
C2289     Br2296   1.934       .  S
C2290      C2291   1.414       .  A
C2290     Br2295   1.935       .  S
C2291      C2292   1.413       .  A
C2292     Br2293   1.933       .  S
C2297      C2298   1.411       .  A
C2297      C2302   1.406       .  A
C2297     Br2304   1.934       .  S
C2298      C2299   1.413       .  A
C2299      C2300   1.413       .  A
C2299     Br2306   1.929       .  S
C2300      C2301   1.410       .  A
C2300     Br2305   1.929       .  S
C2301      C2302   1.411       .  A
C2302     Br2303   1.933       .  S
C2307      C2308   1.414       .  A
C2307      C2312   1.416       .  A
C2307     Br2314   1.930       .  S
C2308      C2309   1.410       .  A
C2309      C2310   1.408       .  A
C2309     Br2316   1.935       .  S
C2310      C2311   1.415       .  A
C2310     Br2315   1.930       .  S
C2311      C2312   1.414       .  A
C2312     Br2313   1.930       .  S
C2317      C2318   1.411       .  A
C2317      C2322   1.411       .  A
C2317     Br2324   1.929       .  S
C2318      C2319   1.413       .  A
C2319      C2320   1.412       .  A
C2319     Br2326   1.932       .  S
C2320      C2321   1.414       .  A
C2320     Br2325   1.933       .  S
C2321      C2322   1.414       .  A
C2322     Br2323   1.932       .  S
C2327      C2328   1.413       .  A
C2327      C2332   1.406       .  A
C2327     Br2334   1.937       .  S
C2328      C2329   1.417       .  A
C2329      C2330   1.416       .  A
C2329     Br2336   1.930       .  S
C2330      C2331   1.412       .  A
C2330     Br2335   1.930       .  S
C2331      C2332   1.418       .  A
C2332     Br2333   1.937       .  S
C2337      C2338   1.416       .  A
C2337      C2342   1.416       .  A
C2337     Br2344   1.931       .  S
C2338      C2339   1.418       .  A
C2339      C2340   1.411       .  A
C2339     Br2346   1.939       .  S
C2340      C2341   1.415       .  A
C2340     Br2345   1.933       .  S
C2341      C2342   1.414       .  A
C2342     Br2343   1.931       .  S
C2347      C2348   1.417       .  A
C2347      C2352   1.411       .  A
C2347     Br2354   1.936       .  S
C2348      C2349   1.412       .  A
C2349      C2350   1.414       .  A
C2349     Br2356   1.931       .  S
C2350      C2351   1.417       .  A
C2350     Br2355   1.932       .  S
C2351      C2352   1.414       .  A
C2352     Br2353   1.936       .  S
C2357      C2358   1.412       .  A
C2357      C2362   1.411       .  A
C2357     Br2364   1.931       .  S
C2358      C2359   1.414       .  A
C2359      C2360   1.408       .  A
C2359     Br2366   1.933       .  S
C2360      C2361   1.410       .  A
C2360     Br2365   1.934       .  S
C2361      C2362   1.410       .  A
C2362     Br2363   1.927       .  S
C2367      C2368   1.412       .  A
C2367      C2372   1.408       .  A
C2367     Br2374   1.937       .  S
C2368      C2369   1.412       .  A
C2369      C2370   1.413       .  A
C2369     Br2376   1.929       .  S
C2370      C2371   1.413       .  A
C2370     Br2375   1.929       .  S
C2371      C2372   1.418       .  A
C2372     Br2373   1.937       .  S
