geometry optimzed in LAMMPS
_audit_creation_date              2020-11-30 
_audit_creation_method            'lammps2cif' 
_symmetry_space_group_name_H-M    'P1' 
_symmetry_Int_Tables_number       1 
_symmetry_cell_setting            triclinic 
loop_ 
_symmetry_equiv_pos_as_xyz 
  x,y,z 
_cell_length_a                    27.0358624 
_cell_length_b                    28.01459298414084 
_cell_length_c                    24.70461106801783 
_cell_angle_alpha                 91.79057565140879 
_cell_angle_beta                  92.46200471199747 
_cell_angle_gamma                 89.04030986994998 
loop_ 
_atom_site_label 
_atom_site_type_symbol 
_atom_site_fract_x 
_atom_site_fract_y 
_atom_site_fract_z 
_atom_site_charge 
In1        In  0.38900978  0.37146619  0.31461755     1.36900
C2          C  0.41381961  0.41515249  0.40766927     0.77700
O3          O  0.32296910  0.42181297  0.32151124    -0.60700
O4          O  0.31110789  0.34889185  0.29897647    -0.51600
C5          C  0.42902580  0.37781519  0.21734074     0.70400
O6          O  0.45467972  0.38220914  0.26119227    -0.46500
C7          C  0.38681865  0.27911397  0.33350950     0.75100
O8          O  0.39258990  0.43726387  0.36931113    -0.58400
O9          O  0.36139822  0.30993838  0.35829161    -0.48500
O10         O  0.43319653  0.37554182  0.39384591    -0.54800
C11         C  0.29231712  0.38876454  0.31214301     0.85300
O12         O  0.38318648  0.37795313  0.22406283    -0.56700
O13         O  0.41805282  0.29558913  0.30297542    -0.60000
In14       In  0.35829954  0.40899248  0.55598307     1.36900
C15         C  0.40327394  0.42623218  0.46474447     0.77700
O16         O  0.40399745  0.34491346  0.58449046    -0.60700
O17         O  0.33494086  0.33362938  0.54193286    -0.51600
C18         C  0.36706895  0.45494591  0.65203539     0.70400
O19         O  0.36018068  0.47775921  0.60888576    -0.46500
C20         C  0.26010586  0.40654638  0.55276877     0.75100
O21         O  0.42464416  0.40447492  0.50304579    -0.58400
O22         O  0.28622924  0.38228718  0.52076716    -0.48500
O23         O  0.36415660  0.44809649  0.47756563    -0.54800
C24         C  0.37277763  0.31524775  0.56477607     0.85300
O25         O  0.37826188  0.41144775  0.64391366    -0.56700
O26         O  0.28342806  0.43623151  0.58261619    -0.60000
In27       In  0.34504597  0.14023116  0.33567853     1.36900
C28         C  0.38757521  0.11722259  0.42931052     0.77700
O29         O  0.39675995  0.19613959  0.30845151    -0.60700
O30         O  0.34014920  0.21553734  0.36304093    -0.51600
C31         C  0.34865542  0.09942215  0.23720819     0.70400
O32         O  0.37218991  0.08318084  0.27815592    -0.46500
C33         C  0.24815594  0.14407360  0.34300406     0.75100
O34         O  0.41119377  0.13662913  0.39345829    -0.58400
O35         O  0.27536274  0.18001374  0.34855364    -0.48500
O36         O  0.34689904  0.09945334  0.41282493    -0.54800
C37         C  0.37557755  0.22873020  0.33594486     0.85300
O38         O  0.32643823  0.13834349  0.24671948    -0.56700
O39         O  0.27059408  0.10457258  0.33615991    -0.60000
In40       In  0.37931626  0.16891563  0.58174771     1.36900
C41         C  0.39801686  0.12782021  0.48696264     0.77700
O42         O  0.31500045  0.11803801  0.57235448    -0.60700
O43         O  0.30312998  0.18860080  0.60419176    -0.51600
C44         C  0.42499158  0.15202538  0.67747842     0.70400
O45         O  0.44816614  0.14964621  0.63416805    -0.46500
C46         C  0.37796636  0.26325484  0.56859846     0.75100
O47         O  0.37798757  0.10553883  0.52339756    -0.58400
O48         O  0.34585180  0.23564073  0.54739989    -0.48500
O49         O  0.41712324  0.16690868  0.50259839    -0.54800
C50         C  0.28461007  0.14910098  0.58932142     0.85300
O51         O  0.37916248  0.15794805  0.66968490    -0.56700
O52         O  0.41300433  0.24256280  0.59426635    -0.60000
In53       In  0.09825379  0.16763304  0.34225778     1.36900
C54         C  0.07456902  0.12928907  0.43503866     0.77700
O55         O  0.16428119  0.12083335  0.32096775    -0.60700
O56         O  0.17558756  0.18658146  0.36515225    -0.51600
C57         C  0.06396131  0.15208822  0.23969711     0.70400
O58         O  0.03675758  0.17100013  0.27508890    -0.46500
C59         C  0.10548633  0.26204166  0.33738468     0.75100
O60         O  0.09430238  0.10529637  0.39787015    -0.58400
O61         O  0.13554308  0.23617739  0.36394684    -0.48500
O62         O  0.05596655  0.16847578  0.42000893    -0.54800
C63         C  0.19463255  0.14976289  0.34363128     0.85300
O64         O  0.10392119  0.13562507  0.25968876    -0.56700
O65         O  0.06829194  0.24055115  0.31681652    -0.60000
In66       In  0.13331717  0.14016210  0.58652290     1.36900
C67         C  0.08609719  0.12006002  0.49268001     0.77700
O68         O  0.08770674  0.20755886  0.59529091    -0.60700
O69         O  0.15491914  0.20800292  0.55253261    -0.51600
C70         C  0.12251262  0.10166531  0.68284976     0.70400
O71         O  0.12370941  0.07656936  0.63949682    -0.46500
C72         C  0.23134730  0.14219525  0.59011319     0.75100
O73         O  0.06509499  0.14265404  0.53037327    -0.58400
O74         O  0.20443550  0.17244195  0.61388908    -0.48500
O75         O  0.12570372  0.09861214  0.50728495    -0.54800
C76         C  0.11775902  0.23099968  0.56892987     0.85300
O77         O  0.11925292  0.14573015  0.67538965    -0.56700
O78         O  0.20835403  0.10875578  0.56496175    -0.60000
In79       In  0.14108733  0.40166821  0.31811657     1.36900
C80         C  0.09989279  0.42476695  0.41228260     0.77700
O81         O  0.08804014  0.34062362  0.30282455    -0.60700
O82         O  0.15638957  0.32959327  0.34819985    -0.51600
C83         C  0.13783532  0.44177106  0.22072563     0.70400
O84         O  0.13409124  0.46632882  0.26416578    -0.46500
C85         C  0.23888363  0.39453975  0.31696931     0.75100
O86         O  0.07524147  0.40639905  0.37271389    -0.58400
O87         O  0.21040763  0.36060837  0.30440422    -0.48500
O88         O  0.14110222  0.44093362  0.39986018    -0.54800
C89         C  0.11615692  0.31222444  0.32945432     0.85300
O90         O  0.13291222  0.39774423  0.22713501    -0.56700
O91         O  0.21771320  0.43224885  0.33421179    -0.60000
In92       In  0.11447498  0.37525981  0.56316494     1.36900
C93         C  0.08938617  0.41555219  0.46944522     0.77700
O94         O  0.17947397  0.42133755  0.58787781    -0.60700
O95         O  0.18839108  0.36205118  0.53208119    -0.51600
C96         C  0.08268730  0.37910381  0.66489552     0.70400
O97         O  0.05663958  0.39458465  0.62500820    -0.46500
C98         C  0.11314170  0.28185451  0.56072874     0.75100
O99         O  0.10879902  0.43924158  0.50882893    -0.58400
O100        O  0.15037615  0.30524857  0.54946360    -0.48500
O101        O  0.07161717  0.37630105  0.48239040    -0.54800
C102        C  0.20777847  0.39720554  0.55739144     0.85300
O103        O  0.12628332  0.36800237  0.65306540    -0.56700
O104        O  0.07386731  0.30595055  0.56713897    -0.60000
In105      In  0.90453493  0.64102021  0.33321626     1.36900
C106        C  0.92179951  0.59914007  0.42724828     0.77700
O107        O  0.93924056  0.71265141  0.32839287    -0.60700
O108        O  0.87067035  0.70828410  0.36679271    -0.51600
C109        C  0.95229793  0.63546247  0.24129351     0.70400
O110        O  0.97542785  0.63325885  0.28663036    -0.46500
C111        C  0.80921567  0.62377930  0.31752787     0.75100
O112        O  0.90102783  0.57776158  0.38718854    -0.58400
O113        O  0.82746915  0.66415149  0.31059181    -0.48500
O114        O  0.94232020  0.63748813  0.41622008    -0.54800
C115        C  0.90338780  0.73444203  0.34908161     0.85300
O116        O  0.90640232  0.62972769  0.24392958    -0.56700
O117        O  0.84029651  0.59064595  0.32731281    -0.60000
In118      In  0.87469140  0.61554120  0.57724618     1.36900
C119        C  0.91056065  0.58902287  0.48318994     0.77700
O120        O  0.79789289  0.58919388  0.58537937    -0.60700
O121        O  0.80755294  0.65400541  0.54461984    -0.51600
C122        C  0.88120983  0.57486184  0.67317514     0.70400
O123        O  0.87420620  0.55050773  0.62986716    -0.46500
C124        C  0.90284720  0.70570316  0.58686915     0.75100
O125        O  0.93880707  0.60059279  0.52319057    -0.58400
O126        O  0.86152019  0.69166438  0.60129450    -0.48500
O127        O  0.86677280  0.58045061  0.49476195    -0.54800
C128        C  0.77804881  0.62492916  0.56317464     0.85300
O129        O  0.89430924  0.61693215  0.66553211    -0.56700
O130        O  0.93166532  0.67311232  0.57004238    -0.60000
In131      In  0.65806542  0.61385736  0.32657221     1.36900
C132        C  0.61670601  0.59789475  0.41963993     0.77700
O133        O  0.73561859  0.58342551  0.34030842    -0.60700
O134        O  0.72612161  0.64914155  0.30039605    -0.51600
C135        C  0.63819885  0.56455566  0.23432603     0.70400
O136        O  0.65252125  0.54401590  0.27698079    -0.46500
C137        C  0.63932197  0.70664093  0.33717108     0.75100
O138        O  0.59197714  0.61408192  0.37979233    -0.58400
O139        O  0.67408597  0.68583437  0.36338299    -0.48500
O140        O  0.65846930  0.58057188  0.40832873    -0.54800
C141        C  0.75571137  0.61779083  0.31831469     0.85300
O142        O  0.62937901  0.60848527  0.24091314    -0.56700
O143        O  0.61333645  0.67978501  0.30550065    -0.60000
In144      In  0.63079949  0.65662984  0.56822610     1.36900
C145        C  0.60584224  0.61112706  0.47586921     0.77700
O146        O  0.60759232  0.73210695  0.54776207    -0.60700
O147        O  0.67267793  0.72017152  0.59751021    -0.51600
C148        C  0.58988076  0.65332902  0.66355065     0.70400
O149        O  0.56765755  0.67244380  0.62372768    -0.46500
C150        C  0.72509571  0.63408849  0.56253288     0.75100
O151        O  0.62550772  0.58959558  0.51531506    -0.58400
O152        O  0.70531224  0.66804485  0.53660499    -0.48500
O153        O  0.58837239  0.65188835  0.48780515    -0.54800
C154        C  0.64373642  0.74986605  0.57517711     0.85300
O155        O  0.62660558  0.62815670  0.65073735    -0.56700
O156        O  0.69640615  0.61091095  0.59067245    -0.60000
In157      In  0.63305846  0.85347440  0.33472792     1.36900
C158        C  0.61682420  0.89800280  0.42830765     0.77700
O159        O  0.60071928  0.78106101  0.31250530    -0.60700
O160        O  0.66163554  0.78472089  0.36942239    -0.51600
C161        C  0.58725741  0.87420862  0.24081727     0.70400
O162        O  0.56346570  0.86638064  0.28242598    -0.46500
C163        C  0.72904324  0.86822388  0.33148371     0.75100
O164        O  0.63281967  0.91942483  0.38888375    -0.58400
O165        O  0.70912486  0.83034772  0.31323118    -0.48500
O166        O  0.59861300  0.85760863  0.41635794    -0.54800
C167        C  0.63276373  0.75863858  0.34067593     0.85300
O168        O  0.63338214  0.87594297  0.24904662    -0.56700
O169        O  0.69959950  0.90005179  0.34819084    -0.60000
In170      In  0.67969184  0.89099917  0.57667500     1.36900
C171        C  0.63279384  0.91074992  0.48417667     0.77700
O172        O  0.75738811  0.91846165  0.59032528    -0.60700
O173        O  0.74712062  0.85365273  0.54486197    -0.51600
C174        C  0.67334633  0.93766546  0.67159740     0.70400
O175        O  0.67371849  0.95961063  0.62780741    -0.46500
C176        C  0.65410057  0.80063728  0.57932496     0.75100
O177        O  0.60969126  0.89798419  0.52426652    -0.58400
O178        O  0.69673761  0.81507600  0.59332164    -0.48500
O179        O  0.67676916  0.92351557  0.49503027    -0.54800
C180        C  0.77716131  0.88241291  0.56787722     0.85300
O181        O  0.66894963  0.89313069  0.66533661    -0.56700
O182        O  0.62262741  0.83293537  0.56818100    -0.60000
In183      In  0.88013187  0.87744255  0.33967436     1.36900
C184        C  0.93064110  0.89589884  0.43282416     0.77700
O185        O  0.80469103  0.90664984  0.36076289    -0.60700
O186        O  0.81001313  0.84304628  0.31182852    -0.51600
C187        C  0.88564097  0.92242517  0.24703625     0.70400
O188        O  0.88370977  0.94481649  0.29199021    -0.46500
C189        C  0.89750605  0.78592377  0.34808912     0.75100
O190        O  0.95042414  0.87468011  0.39339499    -0.58400
O191        O  0.86169481  0.80695706  0.37030714    -0.48500
O192        O  0.88942661  0.91564961  0.42102082    -0.54800
C193        C  0.78247360  0.87342397  0.33439951     0.85300
O194        O  0.89285496  0.87819891  0.25059367    -0.56700
O195        O  0.92537307  0.81201553  0.32196271    -0.60000
In196      In  0.92646411  0.85000759  0.58390630     1.36900
C197        C  0.94612142  0.88749281  0.48976042     0.77700
O198        O  0.94875949  0.77388862  0.56174889    -0.60700
O199        O  0.88734279  0.78672561  0.61177170    -0.51600
C200        C  0.97021827  0.86350884  0.68342656     0.70400
O201        O  0.99019546  0.83774707  0.64757739    -0.46500
C202        C  0.83046658  0.87230742  0.57195367     0.75100
O203        O  0.92893984  0.91217187  0.52805875    -0.58400
O204        O  0.84917223  0.83469358  0.55166566    -0.48500
O205        O  0.96524450  0.84825102  0.50398619    -0.54800
C206        C  0.91422006  0.75651938  0.58754023     0.85300
O207        O  0.93468056  0.88827269  0.66450546    -0.56700
O208        O  0.86071836  0.89866185  0.59870466    -0.60000
C209        C  0.87041804  0.52121777  0.90277660    -0.02400
C210        C  0.01145715  0.66205052  0.02256955    -0.02400
C211        C  0.86313929  0.00746918  0.02945083    -0.02400
C212        C  0.99811192  0.86150448  0.92267015    -0.02400
C213        C  0.51979534  0.66615693  0.88703992    -0.02400
C214        C  0.65822852  0.51948633  0.99805628    -0.02400
C215        C  0.52014359  0.86532460  0.00879102    -0.02400
C216        C  0.66151077  0.99458641  0.89904543    -0.02400
C217        C  0.50704337  0.36087600  0.99652311    -0.02400
C218        C  0.36573149  0.50674139  0.88436712    -0.02400
C219        C  0.49999166  0.15592179  0.90736628    -0.02400
C220        C  0.35778520  0.02111676  0.01274016    -0.02400
C221        C  0.01318501  0.16121816  0.00239264    -0.02400
C222        C  0.15213402  0.01204717  0.89846339    -0.02400
C223        C  0.16753840  0.50079863  0.99691358    -0.02400
C224        C  0.02143665  0.35487695  0.89293645    -0.02400
C225        C  0.10575354  0.40380280  0.89553291    -0.05600
C226        C  0.06985084  0.37920828  0.92488441     0.00300
C227        C  0.07612589  0.38911643  0.98243459    -0.08300
C228        C  0.10405591  0.42940699  0.00232779    -0.05700
C229        C  0.13891517  0.45358709  0.97138878     0.00300
C230        C  0.14564088  0.42900887  0.92063849    -0.08200
C231        C  0.19472470  0.41551484  0.89752524     0.62200
H232        H  0.10716428  0.40196614  0.85222809     0.12900
H233        H  0.09823628  0.44184609  0.04345097     0.12900
C234        C  0.05546034  0.35843810  0.02399162     0.62400
F235        F  0.19776562  0.36657488  0.88954246    -0.22800
F236        F  0.23330977  0.42667410  0.93271224    -0.20100
F237        F  0.19927735  0.43656067  0.84822306    -0.19800
F238        F  0.06427411  0.31165099  0.00843461    -0.19800
F239        F  0.00579576  0.36853325  0.02893334    -0.20100
F240        F  0.07893503  0.36575187  0.07450505    -0.22800
C241        C  0.02669260  0.21516876  0.91792417    -0.05600
C242        C  0.00387434  0.20980576  0.96824696     0.00300
C243        C  0.96908527  0.24851097  0.97870231    -0.08300
C244        C  0.97705181  0.29435428  0.95591524    -0.05700
C245        C  0.00764575  0.30113325  0.91148383     0.00300
C246        C  0.01936725  0.25584337  0.88478584    -0.08200
C247        C  0.99767448  0.24069719  0.82816926     0.62200
H248        H  0.04376071  0.18424815  0.89935344     0.12900
H249        H  0.95560470  0.32463199  0.97001192     0.12900
C250        C  0.91916537  0.24186997  0.00427515     0.62400
F251        F  0.94736654  0.23448015  0.83127161    -0.22800
F252        F  0.01816439  0.19757095  0.81043532    -0.20100
F253        F  0.00422319  0.27203660  0.78780535    -0.19800
F254        F  0.89018104  0.28309475  0.00239607    -0.19800
F255        F  0.92441455  0.23011874  0.05773151    -0.20100
F256        F  0.89268943  0.20684711  0.97579744    -0.22800
C257        C  0.13682992  0.10071601  0.94093159    -0.05600
C258        C  0.12550236  0.05151101  0.93855398     0.00300
C259        C  0.08654301  0.04172447  0.97377440    -0.08300
C260        C  0.04777365  0.07557885  0.98029964    -0.05700
C261        C  0.05377255  0.12553073  0.97481006     0.00300
C262        C  0.10397834  0.13723947  0.96113188    -0.08200
C263        C  0.12814685  0.18556948  0.97034197     0.62200
H264        H  0.17390877  0.11097340  0.93308841     0.12900
H265        H  0.01657597  0.06342087  0.00094900     0.12900
C266        C  0.09442118  0.00694889  0.01954793     0.62400
F267        F  0.17156676  0.18027163  0.00141393    -0.22800
F268        F  0.09959509  0.21861371  0.99707172    -0.20100
F269        F  0.13949181  0.20334472  0.92087336    -0.19800
F270        F  0.13982943  0.01452111  0.04541798    -0.19800
F271        F  0.09156624  0.96052077  0.00116442    -0.20100
F272        F  0.05996861  0.01377593  0.05885532    -0.22800
C273        C  0.21677484  0.98575882  0.97287136    -0.05600
C274        C  0.20797684  0.00487180  0.92106446     0.00300
C275        C  0.25205525  0.01819324  0.89579269    -0.08300
C276        C  0.29462199  0.02884460  0.92878273    -0.05700
C277        C  0.30546033  0.00917504  0.98080345     0.00300
C278        C  0.26405699  0.98386495  0.00136739    -0.08200
C279        C  0.26257504  0.95955763  0.05572295     0.62200
H280        H  0.18614619  0.96872315  0.99015178     0.12900
H281        H  0.32098695  0.04986475  0.90935383     0.12900
C282        C  0.26195077  0.01234764  0.83544780     0.62400
F283        F  0.23670727  0.91743231  0.04944809    -0.22800
F284        F  0.23820735  0.98915588  0.09198868    -0.20100
F285        F  0.30787850  0.94743218  0.07832418    -0.19800
F286        F  0.26678781  0.05630527  0.81252340    -0.19800
F287        F  0.22684724  0.98611966  0.80667468    -0.20100
F288        F  0.30581067  0.98724437  0.82908378    -0.22800
C289        C  0.43907196  0.08602764  0.90992257    -0.05600
C290        C  0.45582848  0.12887892  0.93671049     0.00300
C291        C  0.42689575  0.14126640  0.98353822    -0.13100
C292        C  0.39658301  0.10622194  0.00526746    -0.05700
C293        C  0.38701575  0.06035422  0.98175257     0.00300
C294        C  0.40987675  0.05079859  0.93132468    -0.08200
C295        C  0.40807142  0.00385533  0.89729110     0.62200
H296        H  0.44364600  0.08115754  0.86812251     0.12900
H297        H  0.38065780  0.11607654  0.04301798     0.12900
C298        C  0.41592448  0.18980645  0.01059545     0.62400
F299        F  0.39915138  0.01326084  0.84304872    -0.22800
F300        F  0.37298147  0.97187919  0.91065878    -0.20100
F301        F  0.45342436  0.98113869  0.90289977    -0.19800
F302        F  0.43875397  0.22749977  0.99072553    -0.19800
F303        F  0.42757316  0.18835114  0.06552316    -0.20100
F304        F  0.36564071  0.19959526  0.00426858    -0.22800
C305        C  0.26840140  0.52060147  0.88734457    -0.05600
C306        C  0.31482141  0.51401017  0.91666202     0.00300
C307        C  0.31063449  0.51488823  0.97468760    -0.08300
C308        C  0.26340933  0.51223554  0.99768492    -0.05700
C309        C  0.21748024  0.51203403  0.96758111     0.00300
C310        C  0.22083695  0.52242080  0.91105873    -0.08200
C311        C  0.17649200  0.53899651  0.87466122     0.62200
H312        H  0.26899286  0.52662937  0.84456330     0.12900
H313        H  0.26321446  0.51086354  0.04134503     0.12900
C314        C  0.35371881  0.52083699  0.01595314     0.62400
F315        F  0.18597980  0.53254882  0.82025067    -0.22800
F316        F  0.13354522  0.51524394  0.88291801    -0.20100
F317        F  0.16709554  0.58702461  0.88377597    -0.19800
F318        F  0.34449737  0.55958902  0.05037675    -0.19800
F319        F  0.39757979  0.52877179  0.99225144    -0.20100
F320        F  0.35894834  0.48079045  0.04715991    -0.22800
C321        C  0.50984800  0.24775513  0.89932145    -0.05600
C322        C  0.51418486  0.20773908  0.93340618     0.00300
C323        C  0.53234254  0.21998526  0.98811854    -0.08300
C324        C  0.53323692  0.26941872  0.00613933    -0.05700
C325        C  0.52262520  0.30877653  0.97175076     0.00300
C326        C  0.52137063  0.29504874  0.91541974    -0.08200
C327        C  0.53984574  0.32315121  0.86878381     0.62200
H328        H  0.50172737  0.24297722  0.85652047     0.12900
H329        H  0.54078044  0.27666259  0.04886032     0.12900
C330        C  0.54550069  0.18429060  0.03186490     0.62400
F331        F  0.56611009  0.36279754  0.88408722    -0.22800
F332        F  0.50038157  0.33507062  0.83463358    -0.20100
F333        F  0.57214527  0.29474126  0.83925514    -0.19800
F334        F  0.59471100  0.18831930  0.04823882    -0.19800
F335        F  0.53708348  0.13786244  0.01519069    -0.20100
F336        F  0.51841674  0.19419024  0.07707204    -0.22800
C337        C  0.47749855  0.41595418  0.91573329    -0.05600
C338        C  0.46339260  0.38580516  0.95753379     0.00300
C339        C  0.41068489  0.38884228  0.96420797    -0.08300
C340        C  0.38328588  0.43017539  0.94650631    -0.05700
C341        C  0.39865244  0.46033637  0.90482796     0.00300
C342        C  0.44451177  0.44307719  0.88255579    -0.08200
C343        C  0.45519708  0.43522719  0.82205422     0.62200
H344        H  0.51551179  0.41957321  0.90731952     0.12900
H345        H  0.34624784  0.43336411  0.96039080     0.12900
C346        C  0.37898845  0.34567844  0.97114724     0.62400
F347        F  0.43461258  0.39283803  0.80351446    -0.22800
F348        F  0.43768598  0.46956034  0.78810979    -0.20100
F349        F  0.50571400  0.43224366  0.81483236    -0.19800
F350        F  0.36031644  0.34631705  0.02229973    -0.19800
F351        F  0.40535951  0.30450202  0.96026616    -0.20100
F352        F  0.33894132  0.34536475  0.93437096    -0.22800
C353        C  0.62985049  0.08171040  0.92732236    -0.05600
C354        C  0.62015637  0.03714029  0.89922123     0.00300
C355        C  0.57422677  0.03781606  0.86628901    -0.08300
C356        C  0.54046908  0.07630009  0.87240162    -0.05700
C357        C  0.54738627  0.11854112  0.90423295     0.00300
C358        C  0.59857359  0.12358027  0.92199363    -0.08200
C359        C  0.62752742  0.16934624  0.91649847     0.62200
H360        H  0.66604595  0.08738913  0.94626034     0.12900
H361        H  0.51126892  0.07627229  0.84287195     0.12900
C362        C  0.55640976  0.00519236  0.81800937     0.62400
F363        F  0.64388637  0.18737485  0.96642993    -0.22800
F364        F  0.66885154  0.15957000  0.88652344    -0.20100
F365        F  0.60119127  0.20393231  0.88901864    -0.19800
F366        F  0.51230281  0.98465546  0.82940209    -0.19800
F367        F  0.58709144  0.96936216  0.80245298    -0.20100
F368        F  0.54807329  0.03242787  0.77248186    -0.22800
C369        C  0.48396521  0.95123089  0.00842909    -0.05600
C370        C  0.47356155  0.90189849  0.00877818     0.00300
C371        C  0.42265541  0.89286513  0.02060575    -0.08300
C372        C  0.38612919  0.92952898  0.01030769    -0.05700
C373        C  0.39819166  0.97854556  0.01578487     0.00300
C374        C  0.45046050  0.98674451  0.02513167    -0.08200
C375        C  0.47599728  0.02996382  0.05241825     0.62200
H376        H  0.52092307  0.96350857  0.00312032     0.12900
H377        H  0.34796236  0.91969450  0.00362215     0.12900
C378        C  0.40667048  0.85223048  0.05492991     0.62400
F379        F  0.51151200  0.01428580  0.08984249    -0.22800
F380        F  0.44588164  0.06036500  0.08105588    -0.20100
F381        F  0.49960711  0.05471460  0.01391290    -0.19800
F382        F  0.42079268  0.80845073  0.03450740    -0.19800
F383        F  0.42697072  0.85863067  0.10682519    -0.20100
F384        F  0.35570149  0.85158018  0.05871117    -0.22800
C385        C  0.64777951  0.92751697  0.97118442    -0.05600
C386        C  0.63438706  0.94739852  0.92056000     0.00300
C387        C  0.59182486  0.92425396  0.89476353    -0.08300
C388        C  0.55471414  0.90923136  0.92857493    -0.05700
C389        C  0.56590231  0.88981103  0.97984334     0.00300
C390        C  0.61782586  0.89495358  0.99807174    -0.08200
C391        C  0.64776950  0.86882191  0.04264320     0.62200
H392        H  0.68396588  0.93396918  0.98919688     0.12900
H393        H  0.51855037  0.90305685  0.91015719     0.12900
C394        C  0.59654157  0.88411415  0.85112125     0.62400
F395        F  0.68971509  0.84864297  0.02037552    -0.22800
F396        F  0.62442383  0.83247238  0.06679334    -0.20100
F397        F  0.66307483  0.90161263  0.08265647    -0.19800
F398        F  0.61481294  0.84316137  0.87509462    -0.19800
F399        F  0.55060825  0.87418246  0.82654289    -0.20100
F400        F  0.62649230  0.89340190  0.80996208    -0.22800
C401        C  0.57337149  0.48041964  0.99362494    -0.05600
C402        C  0.62475308  0.47188581  0.98737502     0.00300
C403        C  0.63604585  0.42169805  0.97575186    -0.08300
C404        C  0.59870827  0.38679801  0.98280707    -0.05700
C405        C  0.54999100  0.39823571  0.99849147     0.00300
C406        C  0.53998166  0.44741079  0.01019828    -0.08200
C407        C  0.49794492  0.46883573  0.04393111     0.62200
H408        H  0.55764000  0.51524996  0.98786012     0.12900
H409        H  0.60761939  0.34955511  0.97463132     0.12900
C410        C  0.68005544  0.40171939  0.94525189     0.62400
F411        F  0.51562230  0.47452472  0.09682117    -0.22800
F412        F  0.45571287  0.44256720  0.04465549    -0.20100
F413        F  0.48369930  0.51341786  0.02603660    -0.19800
F414        F  0.71520377  0.38317078  0.98132423    -0.19800
F415        F  0.70019303  0.43478314  0.91322180    -0.20100
F416        F  0.66565066  0.36473240  0.90975390    -0.22800
C417        C  0.42905650  0.63780111  0.91334958    -0.05600
C418        C  0.46890715  0.63643242  0.87710040     0.00300
C419        C  0.46682266  0.59408487  0.84279168    -0.08300
C420        C  0.44566295  0.55317022  0.86294555    -0.05700
C421        C  0.40005651  0.55482045  0.88864882     0.00300
C422        C  0.38959092  0.60318788  0.90940612    -0.08200
C423        C  0.33799750  0.62331076  0.91793393     0.62200
H424        H  0.42590007  0.66679808  0.94262399     0.12900
H425        H  0.46243679  0.52118686  0.84991849     0.12900
C426        C  0.47392153  0.59224987  0.78162392     0.62400
F427        F  0.33796073  0.67271760  0.92227201    -0.22800
F428        F  0.31947640  0.60776261  0.96482731    -0.20100
F429        F  0.30707255  0.61118586  0.87391475    -0.19800
F430        F  0.45650068  0.55049972  0.75753040    -0.19800
F431        F  0.52259637  0.59338834  0.76870568    -0.20100
F432        F  0.44713057  0.62882583  0.75761184    -0.22800
C433        C  0.47359513  0.74665360  0.92263984    -0.05600
C434        C  0.51830912  0.71905097  0.91732208     0.00300
C435        C  0.56174986  0.74540181  0.93645321    -0.08300
C436        C  0.55645418  0.78685070  0.97053261    -0.05700
C437        C  0.51332680  0.81560247  0.97365302     0.00300
C438        C  0.47212535  0.79631014  0.94050580    -0.08200
C439        C  0.42921212  0.82548202  0.91482014     0.62200
H440        H  0.43967644  0.73256350  0.90515237     0.12900
H441        H  0.58877275  0.79996510  0.99156486     0.12900
C442        C  0.61458659  0.73556974  0.91891002     0.62400
F443        F  0.41928350  0.80969371  0.86198486    -0.22800
F444        F  0.43960146  0.87307613  0.91168493    -0.20100
F445        F  0.38613007  0.82012746  0.94179710    -0.19800
F446        F  0.61656615  0.74302976  0.86417806    -0.19800
F447        F  0.63093878  0.69055363  0.93102076    -0.20100
F448        F  0.64877054  0.76616867  0.94416115    -0.22800
C449        C  0.57004474  0.58611904  0.89224424    -0.05600
C450        C  0.55338905  0.62799825  0.92034480     0.00300
C451        C  0.56952670  0.63058462  0.97608503    -0.08300
C452        C  0.60933790  0.60120034  0.99457497    -0.05700
C453        C  0.62704363  0.55989248  0.96604902     0.00300
C454        C  0.60688281  0.55369834  0.91128195    -0.08200
C455        C  0.62341360  0.51504767  0.87001756     0.62200
H456        H  0.55640145  0.58009079  0.85186962     0.12900
H457        H  0.62529827  0.61031645  0.03429429     0.12900
C458        C  0.54565822  0.66051359  0.01997406     0.62400
F459        F  0.60315265  0.47154883  0.87996652    -0.22800
F460        F  0.67402141  0.51092858  0.86997530    -0.20100
F461        F  0.60865056  0.52576137  0.81731365    -0.19800
F462        F  0.49781254  0.67390985  0.00585189    -0.19800
F463        F  0.57463305  0.69960125  0.03276445    -0.20100
F464        F  0.54305945  0.63458187  0.06629374    -0.22800
C465        C  0.06933775  0.97600207  0.88520988    -0.05600
C466        C  0.11929208  0.96570058  0.89811466     0.00300
C467        C  0.13070424  0.91598812  0.90793071    -0.08300
C468        C  0.09074887  0.88410845  0.91349114    -0.05700
C469        C  0.04030310  0.89848041  0.91309768     0.00300
C470        C  0.03021064  0.94545653  0.89238788    -0.08200
C471        C  0.98120122  0.96906302  0.87412968     0.62200
H472        H  0.06018573  0.01133864  0.87052218     0.12900
H473        H  0.09934479  0.84669981  0.91794632     0.12900
C474        C  0.18159008  0.89141900  0.90770165     0.62400
F475        F  0.97792858  0.01341728  0.89942154    -0.22800
F476        F  0.93923855  0.94612147  0.88509668    -0.20100
F477        F  0.98085335  0.97537764  0.81878649    -0.19800
F478        F  0.19620272  0.87978446  0.95987710    -0.19800
F479        F  0.21783677  0.91767599  0.88586393    -0.20100
F480        F  0.17874691  0.84943423  0.87665084    -0.22800
C481        C  0.90911321  0.06645545  0.96739160    -0.05600
C482        C  0.88877648  0.05812887  0.01827468     0.00300
C483        C  0.89323441  0.09912129  0.05471769    -0.08300
C484        C  0.93398712  0.13026233  0.05021792    -0.05700
C485        C  0.96135810  0.13320825  0.00273497     0.00300
C486        C  0.94020541  0.10581807  0.95746016    -0.08200
C487        C  0.94775420  0.11796738  0.89882292     0.62200
H488        H  0.90221690  0.04117120  0.93473072     0.12900
H489        H  0.94310197  0.15242066  0.08511314     0.12900
C490        C  0.85425839  0.11504576  0.09397171     0.62400
F491        F  0.99595684  0.11029166  0.88440656    -0.22800
F492        F  0.93454588  0.16498763  0.89161651    -0.20100
F493        F  0.91782887  0.09108046  0.86314459    -0.19800
F494        F  0.85788514  0.08970475  0.14085489    -0.19800
F495        F  0.80798410  0.11062521  0.06883710    -0.20100
F496        F  0.85924264  0.16288780  0.10890942    -0.22800
C497        C  0.80370412  0.01029750  0.94533533    -0.05600
C498        C  0.80698813  0.01234562  0.00274204     0.00300
C499        C  0.75835242  0.01849324  0.02660932    -0.08300
C500        C  0.71345186  0.01492534  0.99254727    -0.05700
C501        C  0.71208917  0.00926403  0.93507903     0.00300
C502        C  0.75966246  0.01728572  0.91324021    -0.08200
C503        C  0.76653780  0.04745934  0.86400295     0.62200
H504        H  0.83671855  0.00490147  0.92319710     0.12900
H505        H  0.67808160  0.01595443  0.01169663     0.12900
C506        C  0.74736873  0.02781400  0.08618539     0.62400
F507        F  0.80868805  0.07490375  0.87093459    -0.22800
F508        F  0.72752922  0.07934212  0.85725894    -0.20100
F509        F  0.77200053  0.01905797  0.81792936    -0.19800
F510        F  0.71583393  0.06705814  0.09069342    -0.19800
F511        F  0.78771286  0.03724737  0.11966987    -0.20100
F512        F  0.72391824  0.98871817  0.10554586    -0.22800
C513        C  0.94493122  0.96573977  0.00068300    -0.05600
C514        C  0.89237935  0.96268049  0.00083989     0.00300
C515        C  0.87531964  0.91371037  0.98682508    -0.08300
C516        C  0.91037720  0.87875234  0.96651266    -0.05700
C517        C  0.96051283  0.88874757  0.96167696     0.00300
C518        C  0.97548528  0.92463160  0.99967555    -0.08200
C519        C  0.99017017  0.90759895  0.05643451     0.62200
H520        H  0.96357163  0.99815580  0.00942071     0.12900
H521        H  0.89823540  0.84401338  0.95407142     0.12900
C522        C  0.82416872  0.89198417  0.99220776     0.62400
F523        F  0.95410381  0.91922279  0.09266508    -0.22800
F524        F  0.03365468  0.92804672  0.07561965    -0.20100
F525        F  0.99542929  0.85865671  0.05718699    -0.19800
F526        F  0.78565490  0.92379824  0.99508842    -0.19800
F527        F  0.82538903  0.86447833  0.03772332    -0.20100
F528        F  0.81246416  0.86203499  0.94804036    -0.22800
C529        C  0.10564468  0.63458380  0.00357829    -0.05600
C530        C  0.05712037  0.62398389  0.01892821     0.00300
C531        C  0.05075297  0.57349503  0.02674672    -0.08300
C532        C  0.08098927  0.54044572  0.99960829    -0.05700
C533        C  0.13160358  0.54800239  0.99372922     0.00300
C534        C  0.14455732  0.59861797  0.00015754    -0.08200
C535        C  0.19735311  0.61695237  0.00881860     0.62200
H536        H  0.11461980  0.67114320  0.99748459     0.12900
H537        H  0.06580599  0.50581315  0.99380667     0.12900
C538        C  0.01749370  0.54893435  0.06561380     0.62400
F539        F  0.19784108  0.66496111  0.02414372    -0.22800
F540        F  0.22305900  0.61233944  0.96216147    -0.20100
F541        F  0.22234105  0.59308323  0.04983710    -0.19800
F542        F  0.98251351  0.52201538  0.03654967    -0.19800
F543        F  0.99469122  0.57885971  0.10176673    -0.20100
F544        F  0.04595265  0.51781448  0.09676794    -0.22800
C545        C  0.05148860  0.74513014  0.00533322    -0.05600
C546        C  0.01150693  0.71347046  0.99584351     0.00300
C547        C  0.96859490  0.73603771  0.96982370    -0.08300
C548        C  0.97467752  0.77681371  0.93942487    -0.05700
C549        C  0.01173894  0.81060048  0.94995679     0.00300
C550        C  0.05043660  0.79411230  0.98860875    -0.08200
C551        C  0.08908129  0.82415159  0.01975723     0.62200
H552        H  0.08109873  0.73386224  0.03309163     0.12900
H553        H  0.94444204  0.78589288  0.91246394     0.12900
C554        C  0.91342216  0.72723899  0.97715155     0.62400
F555        F  0.08765641  0.81555521  0.07459523    -0.22800
F556        F  0.08166917  0.87209286  0.01480774    -0.20100
F557        F  0.13575727  0.81156195  0.00286551    -0.19800
F558        F  0.89073227  0.76949665  0.99354536    -0.19800
F559        F  0.90223762  0.69554069  0.01513179    -0.20100
F560        F  0.89110318  0.71313128  0.92857815    -0.22800
C561        C  0.89088663  0.42844480  0.88556769    -0.05600
C562        C  0.90745171  0.47553590  0.89791882     0.00300
C563        C  0.96021847  0.47795134  0.90338622    -0.08300
C564        C  0.98566956  0.43860287  0.92415421    -0.05700
C565        C  0.97514961  0.39184876  0.90297383     0.00300
C566        C  0.92379597  0.38747776  0.88270489    -0.08200
C567        C  0.90236813  0.34276582  0.85477408     0.62200
H568        H  0.85178143  0.42382888  0.87717105     0.12900
H569        H  0.02133760  0.44874239  0.94014351     0.12900
C570        C  0.99248043  0.50407546  0.86448277     0.62400
F571        F  0.85704908  0.35201535  0.82859056    -0.22800
F572        F  0.89496868  0.30806683  0.89165072    -0.20100
F573        F  0.93287099  0.32544946  0.81566086    -0.19800
F574        F  0.01905010  0.53900103  0.89260603    -0.19800
F575        F  0.96523553  0.52192295  0.82096519    -0.20100
F576        F  0.02790351  0.47409998  0.84226050    -0.22800
C577        C  0.77806214  0.54535339  0.91359637    -0.05600
C578        C  0.81583776  0.51161007  0.92762420     0.00300
C579        C  0.79940280  0.47771426  0.96709134    -0.08300
C580        C  0.74992397  0.48227773  0.98841839    -0.05700
C581        C  0.71474436  0.51907516  0.97619713     0.00300
C582        C  0.73502025  0.55515477  0.94327735    -0.08200
C583        C  0.71826965  0.60756437  0.94244717     0.62200
H584        H  0.78373266  0.56945989  0.88192959     0.12900
H585        H  0.73843016  0.45701266  0.01723464     0.12900
C586        C  0.82973003  0.43497809  0.98853649     0.62400
F587        F  0.75649043  0.63744323  0.93250722    -0.22800
F588        F  0.70164217  0.62410535  0.99128905    -0.20100
F589        F  0.68300875  0.61381266  0.90187102    -0.19800
F590        F  0.81906377  0.39468931  0.95678015    -0.19800
F591        F  0.88007829  0.44214130  0.99109425    -0.20100
F592        F  0.81744356  0.42537560  0.04089358    -0.22800
C593        C  0.93669661  0.58851288  0.90930392    -0.05600
C594        C  0.90195115  0.56191586  0.93734682     0.00300
C595        C  0.89971923  0.57668392  0.99389413    -0.08300
C596        C  0.93407896  0.60944916  0.01704448    -0.05700
C597        C  0.97056346  0.63220493  0.98943093     0.00300
C598        C  0.97062816  0.62206394  0.93225427    -0.08200
C599        C  0.00314698  0.64673425  0.89188972     0.62200
H600        H  0.93762259  0.58422015  0.86669876     0.12900
H601        H  0.93194291  0.61816406  0.05880415     0.12900
C602        C  0.86092783  0.56288390  0.03223295     0.62400
F603        F  0.01008375  0.61864079  0.84563979    -0.22800
F604        F  0.04963749  0.65709236  0.91311582    -0.20100
F605        F  0.98033943  0.68824248  0.87465052    -0.19800
F606        F  0.86487687  0.51537738  0.04227880    -0.19800
F607        F  0.81621952  0.57578764  0.00978164    -0.20100
F608        F  0.86391322  0.58616635  0.08263106    -0.22800
C609        C  0.01901615  0.83003951  0.82739523    -0.05600
C610        C  0.98128762  0.85019196  0.86006556     0.00300
C611        C  0.93730662  0.86493550  0.82945733    -0.08300
C612        C  0.94204619  0.87797906  0.77552321    -0.05700
C613        C  0.98019781  0.86039557  0.74373878     0.00300
C614        C  0.01863351  0.83344602  0.77006034    -0.08200
C615        C  0.05967722  0.80933030  0.73887058     0.62200
H616        H  0.05032680  0.81286935  0.84775875     0.12900
H617        H  0.91122844  0.89679051  0.75586375     0.12900
C618        C  0.88362117  0.85756832  0.84358430     0.62400
F619        F  0.09494620  0.78800440  0.77297715    -0.22800
F620        F  0.08314872  0.84262235  0.70920886    -0.20100
F621        F  0.04002501  0.77408517  0.70436875    -0.19800
F622        F  0.86672890  0.89629419  0.87290984    -0.19800
F623        F  0.87743171  0.81575522  0.86996116    -0.20100
F624        F  0.85269968  0.85345868  0.79738616    -0.22800
C625        C  0.90876849  0.98304358  0.18354668    -0.05600
C626        C  0.87822230  0.94582429  0.19437843     0.00300
C627        C  0.84098192  0.93231649  0.15576983    -0.08300
C628        C  0.83718019  0.95620588  0.10643487    -0.05700
C629        C  0.86965464  0.99244313  0.09134840     0.00300
C630        C  0.90968567  0.00341053  0.13198670    -0.08200
C631        C  0.95712920  0.03248732  0.12951821     0.62200
H632        H  0.93601641  0.99327039  0.21524136     0.12900
H633        H  0.80688642  0.94698798  0.07961189     0.12900
C634        C  0.80373127  0.89424620  0.16772236     0.62400
F635        F  0.99729536  0.00604771  0.14960133    -0.22800
F636        F  0.95312740  0.07335310  0.16206498    -0.20100
F637        F  0.96994253  0.04520770  0.07981588    -0.19800
F638        F  0.78170254  0.90574803  0.21599477    -0.19800
F639        F  0.82741107  0.85028304  0.17167294    -0.20100
F640        F  0.76648278  0.89019225  0.12769240    -0.22800
C641        C  0.70602777  0.93202205  0.76525590    -0.05600
C642        C  0.68137947  0.95998661  0.72656092     0.00300
C643        C  0.66602782  0.00642608  0.74230215    -0.08300
C644        C  0.66634647  0.01861933  0.79824967    -0.05700
C645        C  0.67799050  0.98466680  0.83918172     0.00300
C646        C  0.70506435  0.94307254  0.82114314    -0.08200
C647        C  0.73248128  0.90697339  0.85577145     0.62200
H648        H  0.72368519  0.89887544  0.75187464     0.12900
H649        H  0.65313050  0.05383987  0.80971878     0.12900
C650        C  0.64754972  0.04215557  0.70106322     0.62400
F651        F  0.78121190  0.90783830  0.84277834    -0.22800
F652        F  0.71488105  0.86151881  0.84419958    -0.20100
F653        F  0.73031561  0.91573535  0.91013623    -0.19800
F654        F  0.60725421  0.02407913  0.67123460    -0.19800
F655        F  0.68499434  0.05165496  0.66675208    -0.20100
F656        F  0.63311757  0.08482238  0.72558011    -0.22800
C657        C  0.55347233  0.90585936  0.09614686    -0.05600
C658        C  0.53383675  0.86245627  0.07216906     0.00300
C659        C  0.52814521  0.82432415  0.11007832    -0.08300
C660        C  0.54259946  0.83257360  0.16541144    -0.05700
C661        C  0.56438346  0.87461996  0.18544810     0.00300
C662        C  0.57040870  0.91202843  0.15034952    -0.08200
C663        C  0.59378872  0.95894486  0.17022542     0.62200
H664        H  0.55971788  0.93535636  0.07114462     0.12900
H665        H  0.53905346  0.80415639  0.19388971     0.12900
C666        C  0.50821770  0.77397277  0.10114786     0.62400
F667        F  0.59858782  0.99050658  0.12885526    -0.22800
F668        F  0.64075597  0.95107280  0.19271427    -0.20100
F669        F  0.56453950  0.98045284  0.20885183    -0.19800
F670        F  0.49501089  0.76066092  0.04929729    -0.19800
F671        F  0.46698677  0.76926731  0.13177745    -0.20100
F672        F  0.54385336  0.74156190  0.11942935    -0.22800
C673        C  0.53199952  0.68698814  0.73097983    -0.05600
C674        C  0.57641982  0.66276687  0.72081234     0.00300
C675        C  0.60929959  0.65369067  0.76552201    -0.08300
C676        C  0.59140754  0.65889558  0.81805660    -0.05700
C677        C  0.54254579  0.67490104  0.82932836     0.00300
C678        C  0.51652082  0.69688026  0.78428696    -0.08200
C679        C  0.47574109  0.73379942  0.79046604     0.62200
H680        H  0.50946950  0.69868886  0.69648588     0.12900
H681        H  0.61643753  0.64939083  0.85052233     0.12900
C682        C  0.66327170  0.63919530  0.75841468     0.62400
F683        F  0.49510069  0.77186738  0.82058843    -0.22800
F684        F  0.43557106  0.71487596  0.81416151    -0.20100
F685        F  0.45882865  0.75158061  0.74124330    -0.19800
F686        F  0.68505377  0.67070771  0.72493440    -0.19800
F687        F  0.66621127  0.59325398  0.73651177    -0.20100
F688        F  0.69073666  0.64021020  0.80676619    -0.22800
C689        C  0.68311305  0.52457026  0.16101212    -0.05600
C690        C  0.63803497  0.54162999  0.17946782     0.00300
C691        C  0.59888482  0.54847866  0.14181044    -0.08300
C692        C  0.60719182  0.53891177  0.08658239    -0.05700
C693        C  0.65503698  0.52914133  0.06411013     0.00300
C694        C  0.69460955  0.52731993  0.10572894    -0.08200
C695        C  0.74605379  0.54621266  0.09973346     0.62200
H696        H  0.71287433  0.51978238  0.19134721     0.12900
H697        H  0.57545232  0.54588980  0.06125405     0.12900
C698        C  0.54812117  0.56502001  0.16079072     0.62400
F699        F  0.76434986  0.56945185  0.14672184    -0.22800
F700        F  0.74446958  0.58009078  0.06134196    -0.20100
F701        F  0.77869252  0.50954897  0.08831659    -0.19800
F702        F  0.54995424  0.61156220  0.18092774    -0.19800
F703        F  0.53369792  0.53572975  0.20113870    -0.20100
F704        F  0.51185650  0.56365142  0.11968120    -0.22800
C705        C  0.86494699  0.59515768  0.76786970    -0.05600
C706        C  0.87047643  0.55897143  0.72868035     0.00300
C707        C  0.85864487  0.51220630  0.74278686    -0.08300
C708        C  0.85382097  0.50257545  0.79847155    -0.05700
C709        C  0.86006087  0.53788046  0.84112611     0.00300
C710        C  0.85674938  0.58657852  0.82237218    -0.08200
C711        C  0.84615323  0.63298486  0.85397225     0.62200
H712        H  0.86597227  0.63188885  0.75528374     0.12900
H713        H  0.84470432  0.46695646  0.80800042     0.12900
C714        C  0.84879123  0.47339483  0.69947166     0.62400
F715        F  0.88365413  0.66451190  0.84562072    -0.22800
F716        F  0.84210901  0.62881456  0.90870294    -0.20100
F717        F  0.80227627  0.65287574  0.83354072    -0.19800
F718        F  0.88936646  0.46670898  0.66793272    -0.19800
F719        F  0.80854232  0.48668927  0.66654288    -0.20100
F720        F  0.83851192  0.43007067  0.72158261    -0.22800
C721        C  0.03972720  0.66319221  0.12695248    -0.05600
C722        C  0.00334784  0.67352861  0.08537857     0.00300
C723        C  0.95831788  0.69179827  0.10615400    -0.08300
C724        C  0.94047363  0.66784516  0.15002031    -0.05700
C725        C  0.97406871  0.64966990  0.18957844     0.00300
C726        C  0.02539138  0.65610504  0.18114665    -0.08200
C727        C  0.06263171  0.66149709  0.22851278     0.62200
H728        H  0.07828790  0.66016832  0.11723456     0.12900
H729        H  0.90218248  0.67406656  0.15993843     0.12900
C730        C  0.94634575  0.74509013  0.11005436     0.62400
F731        F  0.10865346  0.67420795  0.21172051    -0.22800
F732        F  0.06755042  0.61958973  0.25633662    -0.20100
F733        F  0.04659872  0.69750968  0.26346758    -0.19800
F734        F  0.89574118  0.75260074  0.10377814    -0.19800
F735        F  0.96949628  0.77093357  0.07269569    -0.20100
F736        F  0.96176990  0.76330924  0.16063668    -0.22800
C737        C  0.00884157  0.38548032  0.79436238    -0.05600
C738        C  0.03492751  0.35413092  0.83029568     0.00300
C739        C  0.07742869  0.32930679  0.80738425    -0.08300
C740        C  0.08912975  0.33728905  0.75294976    -0.05700
C741        C  0.06425885  0.37115792  0.72051243     0.00300
C742        C  0.02319789  0.39542817  0.74180401    -0.08200
C743        C  0.99503501  0.43332803  0.71003180     0.62200
H744        H  0.97718164  0.40509862  0.80735627     0.12900
H745        H  0.11975877  0.31740132  0.73578056     0.12900
C746        C  0.11333886  0.29482331  0.83642032     0.62400
F747        F  0.95987935  0.45665209  0.74051640    -0.22800
F748        F  0.97107924  0.41227892  0.66509179    -0.20100
F749        F  0.02744228  0.46731774  0.69398995    -0.19800
F750        F  0.10398117  0.24876845  0.81790910    -0.19800
F751        F  0.11141317  0.29668418  0.89203947    -0.20100
F752        F  0.16146665  0.30451419  0.82397570    -0.22800
C753        C  0.17646591  0.42921636  0.13185559    -0.05600
C754        C  0.15239689  0.46082920  0.16743617     0.00300
C755        C  0.14808121  0.50897467  0.15305792    -0.08300
C756        C  0.15986464  0.52166147  0.10028498    -0.05700
C757        C  0.17698013  0.48862904  0.05997301     0.00300
C758        C  0.19222902  0.44218724  0.08037188    -0.08200
C759        C  0.22312899  0.40391660  0.05066598     0.62200
H760        H  0.18309858  0.39317702  0.14522450     0.12900
H761        H  0.15308560  0.55812206  0.09045768     0.12900
C762        C  0.12924983  0.54695098  0.19218978     0.62400
F763        F  0.19609204  0.38132109  0.00934660    -0.22800
F764        F  0.23954411  0.36822661  0.08491391    -0.20100
F765        F  0.26519254  0.42286113  0.03130874    -0.19800
F766        F  0.16178547  0.55136290  0.23675870    -0.19800
F767        F  0.08295435  0.53476740  0.20855409    -0.20100
F768        F  0.12523456  0.59091732  0.16861782    -0.22800
C769        C  0.10994979  0.03578267  0.74460275    -0.05600
C770        C  0.12841498  0.08109740  0.73774194     0.00300
C771        C  0.15991041  0.10117579  0.77941232    -0.08300
C772        C  0.16740531  0.07682906  0.82827892    -0.05700
C773        C  0.14789285  0.03146687  0.83760297     0.00300
C774        C  0.12433086  0.00817987  0.78952407    -0.08200
C775        C  0.12187727  0.95447725  0.77575014     0.62200
H776        H  0.08864849  0.01940560  0.71093357     0.12900
H777        H  0.19359310  0.09141333  0.85754997     0.12900
C778        C  0.18886118  0.14632646  0.77127380     0.62400
F779        F  0.13365945  0.94548822  0.72224793    -0.22800
F780        F  0.07465381  0.93785923  0.78157212    -0.20100
F781        F  0.15551152  0.92807612  0.80547872    -0.19800
F782        F  0.15675599  0.18447608  0.76318730    -0.19800
F783        F  0.21779299  0.13982656  0.72673318    -0.20100
F784        F  0.21996216  0.15794785  0.81556931    -0.22800
C785        C  0.01546218  0.18450921  0.15925609    -0.05600
C786        C  0.05312358  0.15364721  0.17947477     0.00300
C787        C  0.08533925  0.13246084  0.14139603    -0.08300
C788        C  0.07368551  0.13773596  0.08573791    -0.05700
C789        C  0.03555818  0.16913299  0.06456024     0.00300
C790        C  0.01715885  0.20147594  0.10569773    -0.08200
C791        C  0.03187454  0.25392675  0.10607739     0.62200
H792        H  0.99417023  0.20493352  0.18838069     0.12900
H793        H  0.09627851  0.11654434  0.05975452     0.12900
C794        C  0.13221729  0.10444329  0.15834065     0.62400
F795        F  0.07798496  0.25741446  0.08502043    -0.22800
F796        F  0.03594114  0.27418575  0.15804446    -0.20100
F797        F  0.99801493  0.28137896  0.07766168    -0.19800
F798        F  0.12049198  0.06717743  0.19071070    -0.19800
F799        F  0.16533521  0.13456117  0.18599174    -0.20100
F800        F  0.15656077  0.08502824  0.11465209    -0.22800
C801        C  0.41403361  0.15493511  0.77541947    -0.05600
C802        C  0.44750093  0.15184564  0.73381109     0.00300
C803        C  0.49856322  0.15714437  0.74770174    -0.08300
C804        C  0.51393443  0.16088531  0.80327575    -0.05700
C805        C  0.47998974  0.16232047  0.84590235     0.00300
C806        C  0.42868997  0.16695459  0.82894267    -0.08200
C807        C  0.38882699  0.19130485  0.86174815     0.62200
H808        H  0.37467639  0.15315334  0.76528507     0.12900
H809        H  0.55304351  0.16208424  0.81380760     0.12900
C810        C  0.53661616  0.15941852  0.70454630     0.62400
F811        F  0.35629337  0.21698869  0.82841359    -0.22800
F812        F  0.40909763  0.22394519  0.89800491    -0.20100
F813        F  0.36181260  0.15824569  0.88782242    -0.19800
F814        F  0.52592218  0.19771798  0.67179059    -0.19800
F815        F  0.53620111  0.11749823  0.67338676    -0.20100
F816        F  0.58390411  0.16561140  0.72692687    -0.22800
C817        C  0.31687095  0.09701043  0.14095665    -0.05600
C818        C  0.34594798  0.07545418  0.18239006     0.00300
C819        C  0.36891395  0.03100586  0.17094441    -0.08300
C820        C  0.36860275  0.01404269  0.11713104    -0.05700
C821        C  0.34565711  0.03854371  0.07268419     0.00300
C822        C  0.31384959  0.07853969  0.08686791    -0.08200
C823        C  0.27659115  0.10304719  0.04757581     0.62200
H824        H  0.29561989  0.12870193  0.15168983     0.12900
H825        H  0.38843015  0.98103533  0.11038224     0.12900
C826        C  0.39459442  0.00110996  0.21464602     0.62400
F827        F  0.23580519  0.07472728  0.03798802    -0.22800
F828        F  0.29635796  0.11271010  0.99876202    -0.20100
F829        F  0.25954233  0.14626674  0.06889059    -0.19800
F830        F  0.36249414  0.99366167  0.25559040    -0.19800
F831        F  0.43632673  0.02430653  0.23542906    -0.20100
F832        F  0.40943891  0.95652669  0.19502857    -0.22800
C833        C  0.34360491  0.43925716  0.74418489    -0.05600
C834        C  0.35672086  0.47360517  0.70797358     0.00300
C835        C  0.35548847  0.52202372  0.72621773    -0.08300
C836        C  0.35382888  0.53235656  0.78302383    -0.05700
C837        C  0.35097583  0.49589208  0.82191379     0.00300
C838        C  0.33728619  0.44961065  0.79926997    -0.08200
C839        C  0.31572763  0.40867802  0.82823405     0.62200
H840        H  0.33764645  0.40290662  0.72908062     0.12900
H841        H  0.35682736  0.56909627  0.79707157     0.12900
C842        C  0.35705985  0.56212738  0.68652959     0.62400
F843        F  0.34871371  0.37056773  0.83038615    -0.22800
F844        F  0.30331939  0.42154685  0.87906505    -0.20100
F845        F  0.27303724  0.39349692  0.80037155    -0.19800
F846        F  0.31757597  0.55830812  0.64920246    -0.19800
F847        F  0.40085918  0.55943335  0.65961688    -0.20100
F848        F  0.35374721  0.60661987  0.71220597    -0.22800
C849        C  0.49821329  0.38533902  0.15432871    -0.05600
C850        C  0.45073875  0.36900759  0.16299263     0.00300
C851        C  0.42964663  0.33652367  0.12348542    -0.08300
C852        C  0.45182311  0.33061535  0.07266207    -0.05700
C853        C  0.49373474  0.35585467  0.05897001     0.00300
C854        C  0.52242593  0.37409051  0.10581316    -0.08200
C855        C  0.57887317  0.37306720  0.11154120     0.62200
H856        H  0.51830553  0.40374876  0.18746827     0.12900
H857        H  0.43783535  0.30417402  0.04443789     0.12900
C858        C  0.38630660  0.30538106  0.13622420     0.62400
F859        F  0.59418237  0.35881355  0.16285183    -0.22800
F860        F  0.59769726  0.41793262  0.10460935    -0.20100
F861        F  0.59938028  0.34036915  0.07586081    -0.19800
F862        F  0.34364931  0.33291901  0.14030971    -0.19800
F863        F  0.39645454  0.28269611  0.18450761    -0.20100
F864        F  0.37740825  0.27039779  0.09648070    -0.22800
loop_ 
_geom_bond_atom_site_label_1 
_geom_bond_atom_site_label_2 
_geom_bond_distance 
_geom_bond_site_symmetry_2 
_ccdc_geom_bond_type 
In1           O3   2.266       .  S
In1           O4   2.224       .  S
In1          O12   2.249       .  S
In1           O6   2.287       .  S
In1           O8   2.252       .  S
In1           O9   2.218       .  S
In1          O10   2.250       .  S
In1          O13   2.268       .  S
C2            O8   1.261       .  A
C2           O10   1.263       .  A
C2           C15   1.473       .  S
O3           C11   1.262       .  A
O4           C11   1.259       .  A
C5           O12   1.257       .  A
C5            O6   1.265       .  A
C5          C850   1.500       .  S
C7            O9   1.255       .  A
C7           O13   1.259       .  A
C7           C37   1.452       .  S
C11          C85   1.461       .  S
In14         O16   2.275       .  S
In14         O17   2.226       .  S
In14         O25   2.215       .  S
In14         O19   2.294       .  S
In14         O21   2.264       .  S
In14         O22   2.231       .  S
In14         O23   2.268       .  S
In14         O26   2.268       .  S
C15          O21   1.256       .  A
C15          O23   1.261       .  A
O16          C24   1.266       .  A
O17          C24   1.257       .  A
C18          O25   1.263       .  A
C18          O19   1.265       .  A
C18         C834   1.498       .  S
C20          O22   1.259       .  A
C20          O26   1.254       .  A
C20         C102   1.453       .  S
C24          C46   1.467       .  S
In27         O29   2.254       .  S
In27         O30   2.199       .  S
In27         O38   2.233       .  S
In27         O32   2.241       .  S
In27         O34   2.243       .  S
In27         O35   2.203       .  S
In27         O36   2.251       .  S
In27         O39   2.263       .  S
C28          O34   1.256       .  A
C28          O36   1.261       .  A
C28          C41   1.462       .  S
O29          C37   1.265       .  A
O30          C37   1.259       .  A
C31          O38   1.257       .  A
C31          O32   1.265       .  A
C31         C818   1.492       .  S
C33          O35   1.257       .  A
C33          O39   1.263       .  A
C33          C63   1.454       .  S
In40         O42   2.266       .  S
In40         O43   2.212       .  S
In40         O51   2.204       .  S
In40         O45   2.288       .  S
In40         O47   2.252       .  S
In40         O48   2.238       .  S
In40         O49   2.244       .  S
In40         O52   2.276       .  S
C41          O47   1.258       .  A
C41          O49   1.261       .  A
O42          C50   1.261       .  A
O43          C50   1.260       .  A
C44          O51   1.255       .  A
C44          O45   1.262       .  A
C44         C802   1.495       .  S
C46          O48   1.259       .  A
C46          O52   1.260       .  A
C50          C72   1.457       .  S
In53         O55   2.267       .  S
In53         O56   2.211       .  S
In53         O64   2.213       .  S
In53         O58   2.301       .  S
In53         O60   2.262       .  S
In53         O61   2.224       .  S
In53         O62   2.276       .  S
In53         O65   2.281       .  S
C54          O60   1.253       .  A
C54          O62   1.260       .  A
C54          C67   1.474       .  S
O55          C63   1.264       .  A
O56          C63   1.258       .  A
C57          O64   1.255       .  A
C57          O58   1.265       .  A
C57         C786   1.506       .  S
C59          O61   1.257       .  A
C59          O65   1.261       .  A
C59          C89   1.461       .  S
In66         O68   2.248       .  S
In66         O69   2.199       .  S
In66         O77   2.244       .  S
In66         O71   2.268       .  S
In66         O73   2.261       .  S
In66         O74   2.209       .  S
In66         O75   2.250       .  S
In66         O78   2.275       .  S
C67          O73   1.260       .  A
C67          O75   1.264       .  A
O68          C76   1.267       .  A
O69          C76   1.259       .  A
C70          O77   1.255       .  A
C70          O71   1.264       .  A
C70         C770   1.491       .  S
C72          O74   1.256       .  A
C72          O78   1.265       .  A
C76          C98   1.448       .  S
In79         O81   2.263       .  S
In79         O82   2.200       .  S
In79         O90   2.248       .  S
In79         O84   2.283       .  S
In79         O86   2.279       .  S
In79         O87   2.215       .  S
In79         O88   2.269       .  S
In79         O91   2.270       .  S
C80          O86   1.260       .  A
C80          O88   1.263       .  A
C80          C93   1.484       .  S
O81          C89   1.270       .  A
O82          C89   1.263       .  A
C83          O90   1.258       .  A
C83          O84   1.263       .  A
C83         C754   1.506       .  S
C85          O87   1.256       .  A
C85          O91   1.264       .  A
In92         O94   2.250       .  S
In92         O95   2.193       .  S
In92        O103   2.245       .  S
In92         O97   2.280       .  S
In92         O99   2.272       .  S
In92        O100   2.197       .  S
In92        O101   2.265       .  S
In92        O104   2.253       .  S
C93          O99   1.261       .  A
C93         O101   1.263       .  A
O94         C102   1.269       .  A
O95         C102   1.259       .  A
C96         O103   1.258       .  A
C96          O97   1.270       .  A
C96         C741   1.506       .  S
C98         O100   1.256       .  A
C98         O104   1.262       .  A
In105       O107   2.238       .  S
In105       O108   2.233       .  S
In105       O116   2.221       .  S
In105       O110   2.282       .  S
In105       O112   2.256       .  S
In105       O113   2.225       .  S
In105       O114   2.256       .  S
In105       O117   2.253       .  S
C106        O112   1.257       .  A
C106        O114   1.260       .  A
C106        C119   1.465       .  S
O107        C115   1.256       .  A
O108        C115   1.259       .  A
C109        O116   1.259       .  A
C109        O110   1.262       .  A
C109        C725   1.497       .  S
C111        O113   1.261       .  A
C111        O117   1.264       .  A
C111        C141   1.460       .  S
C115        C189   1.449       .  S
In118       O120   2.234       .  S
In118       O121   2.229       .  S
In118       O129   2.222       .  S
In118       O123   2.271       .  S
In118       O125   2.259       .  S
In118       O126   2.223       .  S
In118       O127   2.238       .  S
In118       O130   2.265       .  S
C119        O125   1.260       .  A
C119        O127   1.258       .  A
O120        C128   1.258       .  A
O121        C128   1.260       .  A
C122        O129   1.258       .  A
C122        O123   1.260       .  A
C122        C706   1.496       .  S
C124        O126   1.260       .  A
C124        O130   1.262       .  A
C124        C206   1.461       .  S
C128        C150   1.450       .  S
In131       O133   2.266       .  S
In131       O134   2.232       .  S
In131       O142   2.224       .  S
In131       O136   2.279       .  S
In131       O138   2.263       .  S
In131       O139   2.227       .  S
In131       O140   2.250       .  S
In131       O143   2.253       .  S
C132        O138   1.258       .  A
C132        O140   1.260       .  A
C132        C145   1.467       .  S
O133        C141   1.262       .  A
O134        C141   1.256       .  A
C135        O142   1.257       .  A
C135        O136   1.260       .  A
C135        C690   1.481       .  S
C137        O139   1.263       .  A
C137        O143   1.267       .  A
C137        C167   1.465       .  S
In144       O146   2.262       .  S
In144       O147   2.211       .  S
In144       O155   2.220       .  S
In144       O149   2.265       .  S
In144       O151   2.257       .  S
In144       O152   2.223       .  S
In144       O153   2.252       .  S
In144       O156   2.231       .  S
C145        O151   1.256       .  A
C145        O153   1.260       .  A
O146        C154   1.265       .  A
O147        C154   1.256       .  A
C148        O155   1.254       .  A
C148        O149   1.260       .  A
C148        C674   1.490       .  S
C150        O152   1.262       .  A
C150        O156   1.264       .  A
C154        C176   1.454       .  S
In157       O159   2.265       .  S
In157       O160   2.245       .  S
In157       O168   2.228       .  S
In157       O162   2.267       .  S
In157       O164   2.247       .  S
In157       O165   2.227       .  S
In157       O166   2.256       .  S
In157       O169   2.247       .  S
C158        O164   1.256       .  A
C158        O166   1.263       .  A
C158        C171   1.464       .  S
O159        C167   1.260       .  A
O160        C167   1.260       .  A
C161        O168   1.256       .  A
C161        O162   1.263       .  A
C161        C661   1.477       .  S
C163        O165   1.260       .  A
C163        O169   1.257       .  A
C163        C193   1.453       .  S
In170       O172   2.257       .  S
In170       O173   2.246       .  S
In170       O181   2.221       .  S
In170       O175   2.274       .  S
In170       O177   2.256       .  S
In170       O178   2.216       .  S
In170       O179   2.237       .  S
In170       O182   2.259       .  S
C171        O177   1.258       .  A
C171        O179   1.263       .  A
O172        C180   1.259       .  A
O173        C180   1.259       .  A
C174        O181   1.259       .  A
C174        O175   1.261       .  A
C174        C642   1.486       .  S
C176        O178   1.259       .  A
C176        O182   1.260       .  A
C180        C202   1.464       .  S
In183       O185   2.260       .  S
In183       O186   2.214       .  S
In183       O194   2.243       .  S
In183       O188   2.262       .  S
In183       O190   2.272       .  S
In183       O191   2.209       .  S
In183       O192   2.254       .  S
In183       O195   2.229       .  S
C184        O190   1.259       .  A
C184        O192   1.263       .  A
C184        C197   1.475       .  S
O185        C193   1.264       .  A
O186        C193   1.255       .  A
C187        O194   1.256       .  A
C187        O188   1.261       .  A
C187        C626   1.479       .  S
C189        O191   1.262       .  A
C189        O195   1.268       .  A
In196       O198   2.263       .  S
In196       O199   2.222       .  S
In196       O207   2.236       .  S
In196       O201   2.311       .  S
In196       O203   2.259       .  S
In196       O204   2.247       .  S
In196       O205   2.274       .  S
In196       O208   2.257       .  S
C197        O203   1.255       .  A
C197        O205   1.260       .  A
O198        C206   1.265       .  A
O199        C206   1.260       .  A
C200        O207   1.258       .  A
C200        O201   1.259       .  A
C200        C613   1.508       .  S
C202        O204   1.260       .  A
C202        O208   1.263       .  A
C209        C562   1.616       .  S
C209        C578   1.652       .  S
C209        C594   1.633       .  S
C209        C709   1.618       .  S
C210        C530   1.621       .  S
C210        C546   1.603   1_554  S
C210        C597   1.582   1_454  S
C210        C722   1.598       .  S
C211        C482   1.626       .  S
C211        C498   1.634       .  S
C211        C514   1.630   1_545  S
C211        C629   1.600   1_545  S
C212        C469   1.584   1_655  S
C212        C517   1.599       .  S
C212        C549   1.626   1_655  S
C212        C610   1.617       .  S
C213        C418   1.626       .  S
C213        C434   1.640       .  S
C213        C450   1.613       .  S
C213        C677   1.604       .  S
C214        C402   1.632       .  S
C214        C453   1.608       .  S
C214        C581   1.642       .  S
C214        C693   1.651   1_556  S
C215        C370   1.610       .  S
C215        C389   1.627   1_554  S
C215        C437   1.627   1_554  S
C215        C658   1.598       .  S
C216        C354   1.621   1_565  S
C216        C386   1.636       .  S
C216        C501   1.650   1_565  S
C216        C645   1.578       .  S
C217        C325   1.621       .  S
C217        C338   1.651       .  S
C217        C405   1.574       .  S
C217        C853   1.610   1_556  S
C218        C306   1.627       .  S
C218        C341   1.644       .  S
C218        C421   1.647       .  S
C218        C837   1.598       .  S
C219        C290   1.632       .  S
C219        C322   1.615       .  S
C219        C357   1.644       .  S
C219        C805   1.604       .  S
C220        C277   1.625   1_554  S
C220        C293   1.598   1_554  S
C220        C373   1.605   1_545  S
C220        C821   1.591       .  S
C221        C242   1.634   1_554  S
C221        C261   1.629   1_554  S
C221        C485   1.618   1_455  S
C221        C789   1.636       .  S
C222        C258   1.639       .  S
C222        C274   1.599       .  S
C222        C466   1.585   1_545  S
C222        C773   1.614       .  S
C223        C229   1.639       .  S
C223        C309   1.600       .  S
C223        C533   1.630       .  S
C223        C757   1.614   1_556  S
C224        C226   1.646       .  S
C224        C245   1.641       .  S
C224        C565   1.633   1_455  S
C224        C738   1.605       .  S
C225        C226   1.434       .  A
C225        C230   1.410       .  A
C225        H232   1.072       .  S
C226        C227   1.443       .  A
C227        C234   1.492   1_556  S
C227        C228   1.431   1_556  A
C228        C229   1.431   1_554  A
C228        H233   1.081       .  S
C229        C230   1.428       .  A
C230        C231   1.505       .  S
C231        F235   1.381       .  S
C231        F236   1.363       .  S
C231        F237   1.381       .  S
C234        F238   1.374       .  S
C234        F239   1.377       .  S
C234        F240   1.387       .  S
C241        C242   1.425       .  A
C241        C246   1.430       .  A
C241        H248   1.074       .  S
C242        C243   1.448   1_455  A
C243        C250   1.531   1_556  S
C243        C244   1.441       .  A
C244        C245   1.422   1_655  A
C244        H249   1.077       .  S
C245        C246   1.448       .  A
C246        C247   1.543   1_455  S
C247        F251   1.380       .  S
C247        F252   1.387   1_655  S
C247        F253   1.368   1_655  S
C250        F254   1.386       .  S
C250        F255   1.372       .  S
C250        F256   1.381   1_554  S
C257        C258   1.416       .  A
C257        C262   1.435       .  A
C257        H264   1.075       .  S
C258        C259   1.430       .  A
C259        C266   1.521   1_556  S
C259        C260   1.413       .  A
C260        C261   1.423       .  A
C260        H265   1.070   1_556  S
C261        C262   1.458       .  A
C262        C263   1.520       .  S
C263        F267   1.383   1_556  S
C263        F268   1.368       .  S
C263        F269   1.382       .  S
C266        F270   1.376       .  S
C266        F271   1.367   1_545  S
C266        F272   1.381       .  S
C273        C274   1.412   1_565  A
C273        C278   1.434   1_556  A
C273        H280   1.073       .  S
C274        C275   1.429       .  A
C275        C282   1.529       .  S
C275        C276   1.412       .  A
C276        C277   1.431       .  A
C276        H281   1.071       .  S
C277        C278   1.453   1_546  A
C278        C279   1.527       .  S
C279        F283   1.383       .  S
C279        F284   1.382       .  S
C279        F285   1.366       .  S
C282        F286   1.382       .  S
C282        F287   1.371   1_545  S
C282        F288   1.381   1_545  S
C289        C290   1.424       .  A
C289        C294   1.404       .  A
C289        H296   1.050       .  S
C290        C291   1.454       .  A
C291        C298   1.527   1_556  S
C291        C292   1.422   1_556  A
C292        C293   1.417   1_554  A
C292        H297   1.070       .  S
C293        C294   1.430       .  A
C294        C295   1.539       .  S
C295        F299   1.384       .  S
C295        F300   1.373   1_545  S
C295        F301   1.376   1_545  S
C298        F302   1.348   1_554  S
C298        F303   1.381       .  S
C298        F304   1.386       .  S
C305        C306   1.434       .  A
C305        C310   1.435       .  A
C305        H312   1.076       .  S
C306        C307   1.442       .  A
C307        C314   1.522   1_556  S
C307        C308   1.424       .  A
C308        C309   1.420       .  A
C308        H313   1.081   1_556  S
C309        C310   1.442       .  A
C310        C311   1.542       .  S
C311        F315   1.385       .  S
C311        F316   1.374       .  S
C311        F317   1.378       .  S
C314        F318   1.384       .  S
C314        F319   1.369   1_554  S
C314        F320   1.383       .  S
C321        C322   1.423       .  A
C321        C326   1.407       .  A
C321        H328   1.075       .  S
C322        C323   1.451       .  A
C323        C330   1.522   1_556  S
C323        C324   1.442   1_556  A
C324        C325   1.431   1_554  A
C324        H329   1.080       .  S
C325        C326   1.431       .  A
C326        C327   1.522       .  S
C327        F331   1.363       .  S
C327        F332   1.375       .  S
C327        F333   1.387       .  S
C330        F334   1.379       .  S
C330        F335   1.372       .  S
C330        F336   1.380       .  S
C337        C338   1.423       .  A
C337        C342   1.413       .  A
C337        H344   1.064       .  S
C338        C339   1.442       .  A
C339        C346   1.512       .  S
C339        C340   1.434       .  A
C340        C341   1.432       .  A
C340        H345   1.074       .  S
C341        C342   1.448       .  A
C342        C343   1.543       .  S
C343        F347   1.377       .  S
C343        F348   1.361       .  S
C343        F349   1.386       .  S
C346        F350   1.380   1_556  S
C346        F351   1.371       .  S
C346        F352   1.383       .  S
C353        C354   1.432       .  A
C353        C358   1.441       .  A
C353        H360   1.078       .  S
C354        C355   1.455       .  A
C355        C362   1.545       .  S
C355        C356   1.410       .  A
C356        C357   1.411       .  A
C356        H361   1.052       .  S
C357        C358   1.442       .  A
C358        C359   1.526       .  S
C359        F363   1.376       .  S
C359        F364   1.386       .  S
C359        F365   1.372       .  S
C362        F366   1.376   1_545  S
C362        F367   1.349   1_545  S
C362        F368   1.387       .  S
C369        C370   1.415       .  A
C369        C374   1.399       .  A
C369        H376   1.077       .  S
C370        C371   1.447       .  A
C371        C378   1.520       .  S
C371        C372   1.434       .  A
C372        C373   1.418       .  A
C372        H377   1.077       .  S
C373        C374   1.443       .  A
C374        C375   1.528   1_565  S
C375        F379   1.380       .  S
C375        F380   1.370       .  S
C375        F381   1.379       .  S
C378        F382   1.366       .  S
C378        F383   1.380       .  S
C378        F384   1.386       .  S
C385        C386   1.415       .  A
C385        C390   1.428       .  A
C385        H392   1.073       .  S
C386        C387   1.445       .  A
C387        C394   1.541       .  S
C387        C388   1.411       .  A
C388        C389   1.413       .  A
C388        H393   1.075       .  S
C389        C390   1.464       .  A
C390        C391   1.535   1_556  S
C391        F395   1.386       .  S
C391        F396   1.372       .  S
C391        F397   1.383       .  S
C394        F398   1.382       .  S
C394        F399   1.387       .  S
C394        F400   1.361       .  S
C401        C402   1.420       .  A
C401        C406   1.386   1_556  A
C401        H408   1.069       .  S
C402        C403   1.456       .  A
C403        C410   1.525       .  S
C403        C404   1.437       .  A
C404        C405   1.418       .  A
C404        H409   1.082       .  S
C405        C406   1.423   1_556  A
C406        C407   1.541       .  S
C407        F411   1.377       .  S
C407        F412   1.370       .  S
C407        F413   1.381       .  S
C410        F414   1.381       .  S
C410        F415   1.371       .  S
C410        F416   1.386       .  S
C417        C418   1.430       .  A
C417        C422   1.452       .  A
C417        H424   1.075       .  S
C418        C419   1.437       .  A
C419        C426   1.531       .  S
C419        C420   1.404       .  A
C420        C421   1.410       .  A
C420        H425   1.045       .  S
C421        C422   1.461       .  A
C422        C423   1.516       .  S
C423        F427   1.385       .  S
C423        F428   1.368       .  S
C423        F429   1.380       .  S
C426        F430   1.377       .  S
C426        F431   1.368       .  S
C426        F432   1.379       .  S
C433        C434   1.433       .  A
C433        C438   1.447       .  A
C433        H440   1.073       .  S
C434        C435   1.452       .  A
C435        C442   1.529       .  S
C435        C436   1.422       .  A
C436        C437   1.409       .  A
C436        H441   1.062       .  S
C437        C438   1.455       .  A
C438        C439   1.534       .  S
C439        F443   1.382       .  S
C439        F444   1.372       .  S
C439        F445   1.379       .  S
C442        F446   1.378       .  S
C442        F447   1.367       .  S
C442        F448   1.386       .  S
C449        C450   1.421       .  A
C449        C454   1.412       .  A
C449        H456   1.058       .  S
C450        C451   1.427       .  A
C451        C458   1.510   1_556  S
C451        C452   1.413       .  A
C452        C453   1.423       .  A
C452        H457   1.080   1_556  S
C453        C454   1.443       .  A
C454        C455   1.538       .  S
C455        F459   1.378       .  S
C455        F460   1.371       .  S
C455        F461   1.386       .  S
C458        F462   1.374       .  S
C458        F463   1.378       .  S
C458        F464   1.379       .  S
C465        C466   1.402       .  A
C465        C470   1.392       .  A
C465        H472   1.086   1_565  S
C466        C467   1.447       .  A
C467        C474   1.528       .  S
C467        C468   1.427       .  A
C468        C469   1.415       .  A
C468        H473   1.078       .  S
C469        C470   1.444       .  A
C470        C471   1.528   1_455  S
C471        F475   1.377   1_565  S
C471        F476   1.355       .  S
C471        F477   1.384       .  S
C474        F478   1.379       .  S
C474        F479   1.374       .  S
C474        F480   1.385       .  S
C481        C482   1.421   1_556  A
C481        C486   1.431       .  A
C481        H488   1.069       .  S
C482        C483   1.440       .  A
C483        C490   1.515       .  S
C483        C484   1.427       .  A
C484        C485   1.419       .  A
C484        H489   1.069       .  S
C485        C486   1.440   1_554  A
C486        C487   1.521       .  S
C487        F491   1.377       .  S
C487        F492   1.374       .  S
C487        F493   1.384       .  S
C490        F494   1.376       .  S
C490        F495   1.378       .  S
C490        F496   1.386       .  S
C497        C498   1.417   1_556  A
C497        C502   1.416       .  A
C497        H504   1.073       .  S
C498        C499   1.469       .  A
C499        C506   1.528       .  S
C499        C500   1.450   1_554  A
C500        C501   1.423       .  A
C500        H505   1.085   1_556  S
C501        C502   1.440       .  A
C502        C503   1.522       .  S
C503        F507   1.387       .  S
C503        F508   1.379       .  S
C503        F509   1.380       .  S
C506        F510   1.385       .  S
C506        F511   1.365       .  S
C506        F512   1.383   1_545  S
C513        C514   1.425       .  A
C513        C518   1.406   1_554  A
C513        H520   1.058       .  S
C514        C515   1.481   1_554  A
C515        C522   1.533       .  S
C515        C516   1.445       .  A
C516        C517   1.400       .  A
C516        H521   1.064       .  S
C517        C518   1.406       .  A
C518        C519   1.529   1_556  S
C519        F523   1.380       .  S
C519        F524   1.376   1_655  S
C519        F525   1.377       .  S
C522        F526   1.362       .  S
C522        F527   1.382   1_556  S
C522        F528   1.384       .  S
C529        C530   1.420       .  A
C529        C534   1.448       .  A
C529        H536   1.073   1_554  S
C530        C531   1.448       .  A
C531        C538   1.530       .  S
C531        C532   1.399   1_554  A
C532        C533   1.403       .  A
C532        H537   1.063       .  S
C533        C534   1.468   1_556  A
C534        C535   1.529       .  S
C535        F539   1.386       .  S
C535        F540   1.373   1_554  S
C535        F541   1.378       .  S
C538        F542   1.382   1_455  S
C538        F543   1.365   1_455  S
C538        F544   1.383       .  S
C545        C546   1.417   1_554  A
C545        C550   1.445   1_554  A
C545        H552   1.081       .  S
C546        C547   1.448   1_455  A
C547        C554   1.535       .  S
C547        C548   1.402       .  A
C548        C549   1.401   1_655  A
C548        H553   1.065       .  S
C549        C550   1.465       .  A
C550        C551   1.520   1_556  S
C551        F555   1.386       .  S
C551        F556   1.363       .  S
C551        F557   1.383       .  S
C554        F558   1.382       .  S
C554        F559   1.359   1_556  S
C554        F560   1.370       .  S
C561        C562   1.420       .  A
C561        C566   1.442       .  A
C561        H568   1.078       .  S
C562        C563   1.430       .  A
C563        C570   1.535       .  S
C563        C564   1.390       .  A
C564        C565   1.424       .  A
C564        H569   1.066   1_655  S
C565        C566   1.461       .  A
C566        C567   1.522       .  S
C567        F571   1.385       .  S
C567        F572   1.376       .  S
C567        F573   1.369       .  S
C570        F574   1.376   1_655  S
C570        F575   1.379       .  S
C570        F576   1.383   1_655  S
C577        C578   1.419       .  A
C577        C582   1.420       .  A
C577        H584   1.067       .  S
C578        C579   1.469       .  A
C579        C586   1.535       .  S
C579        C580   1.461       .  A
C580        C581   1.421       .  A
C580        H585   1.078   1_556  S
C581        C582   1.446       .  A
C582        C583   1.530       .  S
C583        F587   1.376       .  S
C583        F588   1.370       .  S
C583        F589   1.367       .  S
C586        F590   1.382       .  S
C586        F591   1.378       .  S
C586        F592   1.385   1_556  S
C593        C594   1.424       .  A
C593        C598   1.413       .  A
C593        H600   1.057       .  S
C594        C595   1.448       .  A
C595        C602   1.506   1_556  S
C595        C596   1.408   1_556  A
C596        C597   1.397   1_554  A
C596        H601   1.056       .  S
C597        C598   1.432       .  A
C598        C599   1.544   1_655  S
C599        F603   1.385       .  S
C599        F604   1.373       .  S
C599        F605   1.378   1_455  S
C602        F606   1.363       .  S
C602        F607   1.356       .  S
C602        F608   1.387       .  S
C609        C610   1.426   1_455  A
C609        C614   1.422       .  A
C609        H616   1.080       .  S
C610        C611   1.443       .  A
C611        C618   1.526       .  S
C611        C612   1.404       .  A
C612        C613   1.397       .  A
C612        H617   1.084       .  S
C613        C614   1.421   1_655  A
C614        C615   1.516       .  S
C615        F619   1.385       .  S
C615        F620   1.383       .  S
C615        F621   1.382       .  S
C618        F622   1.369       .  S
C618        F623   1.374       .  S
C618        F624   1.388       .  S
C625        C626   1.381       .  A
C625        C630   1.413   1_565  A
C625        H632   1.087       .  S
C626        C627   1.405       .  A
C627        C634   1.523       .  S
C627        C628   1.408       .  A
C628        C629   1.422       .  A
C628        H633   1.061       .  S
C629        C630   1.474   1_565  A
C630        C631   1.535       .  S
C631        F635   1.387       .  S
C631        F636   1.384       .  S
C631        F637   1.350       .  S
C634        F638   1.382       .  S
C634        F639   1.383       .  S
C634        F640   1.384       .  S
C641        C642   1.395       .  A
C641        C646   1.407       .  A
C641        H648   1.086       .  S
C642        C643   1.407   1_565  A
C643        C650   1.514       .  S
C643        C644   1.413       .  A
C644        C645   1.431   1_545  A
C644        H649   1.077       .  S
C645        C646   1.435       .  A
C646        C647   1.509       .  S
C647        F651   1.370       .  S
C647        F652   1.384       .  S
C647        F653   1.361       .  S
C650        F654   1.383       .  S
C650        F655   1.382       .  S
C650        F656   1.381       .  S
C657        C658   1.436       .  A
C657        C662   1.403       .  A
C657        H664   1.067       .  S
C658        C659   1.457       .  A
C659        C666   1.525       .  S
C659        C660   1.419       .  A
C660        C661   1.393       .  A
C660        H665   1.087       .  S
C661        C662   1.397       .  A
C662        C663   1.526       .  S
C663        F667   1.384       .  S
C663        F668   1.381       .  S
C663        F669   1.383       .  S
C666        F670   1.357       .  S
C666        F671   1.384       .  S
C666        F672   1.384       .  S
C673        C674   1.398       .  A
C673        C678   1.417       .  A
C673        H680   1.082       .  S
C674        C675   1.414       .  A
C675        C682   1.524       .  S
C675        C676   1.407       .  A
C676        C677   1.424       .  A
C676        H681   1.064       .  S
C677        C678   1.440       .  A
C678        C679   1.508       .  S
C679        F683   1.379       .  S
C679        F684   1.377       .  S
C679        F685   1.385       .  S
C682        F686   1.384       .  S
C682        F687   1.383       .  S
C682        F688   1.379       .  S
C689        C690   1.391       .  A
C689        C694   1.418       .  A
C689        H696   1.085       .  S
C690        C691   1.394       .  A
C691        C698   1.529       .  S
C691        C692   1.409       .  A
C692        C693   1.448       .  A
C692        H697   1.059       .  S
C693        C694   1.453       .  A
C694        C695   1.511       .  S
C695        F699   1.389       .  S
C695        F700   1.361       .  S
C695        F701   1.373       .  S
C698        F702   1.382       .  S
C698        F703   1.384       .  S
C698        F704   1.381       .  S
C705        C706   1.390       .  A
C705        C710   1.403       .  A
C705        H712   1.085       .  S
C706        C707   1.411       .  A
C707        C714   1.520       .  S
C707        C708   1.422       .  A
C708        C709   1.429       .  A
C708        H713   1.068       .  S
C709        C710   1.455       .  A
C710        C711   1.525       .  S
C711        F715   1.382       .  S
C711        F716   1.370       .  S
C711        F717   1.384       .  S
C714        F718   1.379       .  S
C714        F719   1.383       .  S
C714        F720   1.384       .  S
C721        C722   1.424       .  A
C721        C726   1.430       .  A
C721        H728   1.081       .  S
C722        C723   1.423   1_455  A
C723        C730   1.523       .  S
C723        C724   1.400       .  A
C724        C725   1.407       .  A
C724        H729   1.084       .  S
C725        C726   1.427   1_655  A
C726        C727   1.516       .  S
C727        F731   1.384       .  S
C727        F732   1.381       .  S
C727        F733   1.384       .  S
C730        F734   1.384       .  S
C730        F735   1.369       .  S
C730        F736   1.385       .  S
C737        C738   1.425       .  A
C737        C742   1.408       .  A
C737        H744   1.065   1_455  S
C738        C739   1.459       .  A
C739        C746   1.530       .  S
C739        C740   1.420       .  A
C740        C741   1.405       .  A
C740        H745   1.084       .  S
C741        C742   1.405       .  A
C742        C743   1.516   1_455  S
C743        F747   1.381       .  S
C743        F748   1.382       .  S
C743        F749   1.383   1_655  S
C746        F750   1.379       .  S
C746        F751   1.377       .  S
C746        F752   1.383       .  S
C753        C754   1.401       .  A
C753        C758   1.418       .  A
C753        H760   1.082       .  S
C754        C755   1.407       .  A
C755        C762   1.512       .  S
C755        C756   1.413       .  A
C756        C757   1.425       .  A
C756        H761   1.068       .  S
C757        C758   1.457       .  A
C758        C759   1.536       .  S
C759        F763   1.374       .  S
C759        F764   1.385       .  S
C759        F765   1.373       .  S
C762        F766   1.383       .  S
C762        F767   1.383       .  S
C762        F768   1.379       .  S
C769        C770   1.390       .  A
C769        C774   1.410       .  A
C769        H776   1.085       .  S
C770        C771   1.416       .  A
C771        C778   1.522       .  S
C771        C772   1.410       .  A
C772        C773   1.413       .  A
C772        H777   1.067       .  S
C773        C774   1.464       .  A
C774        C775   1.534   1_545  S
C775        F779   1.387       .  S
C775        F780   1.381       .  S
C775        F781   1.367       .  S
C778        F782   1.379       .  S
C778        F783   1.383       .  S
C778        F784   1.385       .  S
C785        C786   1.410       .  A
C785        C790   1.423       .  A
C785        H792   1.084   1_455  S
C786        C787   1.419       .  A
C787        C794   1.529       .  S
C787        C788   1.409       .  A
C788        C789   1.436       .  A
C788        H793   1.066       .  S
C789        C790   1.439       .  A
C790        C791   1.528       .  S
C791        F795   1.377       .  S
C791        F796   1.388       .  S
C791        F797   1.370   1_455  S
C794        F798   1.384       .  S
C794        F799   1.385       .  S
C794        F800   1.381       .  S
C801        C802   1.398       .  A
C801        C806   1.397       .  A
C801        H808   1.084       .  S
C802        C803   1.417       .  A
C803        C810   1.517       .  S
C803        C804   1.418       .  A
C804        C805   1.425       .  A
C804        H809   1.079       .  S
C805        C806   1.436       .  A
C806        C807   1.516       .  S
C807        F811   1.387       .  S
C807        F812   1.365       .  S
C807        F813   1.381       .  S
C810        F814   1.383       .  S
C810        F815   1.384       .  S
C810        F816   1.382       .  S
C817        C818   1.409       .  A
C817        C822   1.417       .  A
C817        H824   1.082       .  S
C818        C819   1.408       .  A
C819        C826   1.524       .  S
C819        C820   1.397       .  A
C820        C821   1.427       .  A
C820        H825   1.073   1_545  S
C821        C822   1.445       .  A
C822        C823   1.537       .  S
C823        F827   1.377       .  S
C823        F828   1.376   1_554  S
C823        F829   1.385       .  S
C826        F830   1.384   1_545  S
C826        F831   1.383       .  S
C826        F832   1.385   1_545  S
C833        C834   1.394       .  A
C833        C838   1.400       .  A
C833        H840   1.086       .  S
C834        C835   1.416       .  A
C835        C842   1.516       .  S
C835        C836   1.426       .  A
C836        C837   1.429       .  A
C836        H841   1.079       .  S
C837        C838   1.444       .  A
C838        C839   1.509       .  S
C839        F843   1.380       .  S
C839        F844   1.350       .  S
C839        F845   1.384       .  S
C842        F846   1.384       .  S
C842        F847   1.383       .  S
C842        F848   1.384       .  S
C849        C850   1.397       .  A
C849        C854   1.415       .  A
C849        H856   1.084       .  S
C850        C851   1.421       .  A
C851        C858   1.522       .  S
C851        C852   1.418       .  A
C852        C853   1.405       .  A
C852        H857   1.064       .  S
C853        C854   1.450       .  A
C854        C855   1.526       .  S
C855        F859   1.385       .  S
C855        F860   1.382       .  S
C855        F861   1.378       .  S
C858        F862   1.382       .  S
C858        F863   1.384       .  S
C858        F864   1.382       .  S
