geometry optimzed in LAMMPS
_audit_creation_date              2020-11-30 
_audit_creation_method            'lammps2cif' 
_symmetry_space_group_name_H-M    'P1' 
_symmetry_Int_Tables_number       1 
_symmetry_cell_setting            triclinic 
loop_ 
_symmetry_equiv_pos_as_xyz 
  x,y,z 
_cell_length_a                    44.07728459 
_cell_length_b                    43.711472310970414 
_cell_length_c                    43.42017111036484 
_cell_angle_alpha                 90.02403175963416 
_cell_angle_beta                  89.9996529541541 
_cell_angle_gamma                 89.88519363951762 
loop_ 
_atom_site_label 
_atom_site_type_symbol 
_atom_site_fract_x 
_atom_site_fract_y 
_atom_site_fract_z 
_atom_site_charge 
O1          O  0.00607580  0.05197670  0.08646707    -0.86900
O2          O  0.00167802  0.04806599  0.41111543    -0.87100
O3          O  0.05406632  0.08538741  0.99854740    -0.88700
O4          O  0.45547992  0.08991339  0.99782809    -0.87500
O5          O  0.41737114  0.05427692  0.99820889    -0.87100
O6          O  0.08930149  0.04689895  0.00143961    -0.88400
O7          O  0.00265346  0.08564167  0.44791099    -0.86900
O8          O  0.00584024  0.08823377  0.04812771    -0.86500
Zr9        Zr  0.00334908  0.06230250  0.99869895     2.84300
O10         O  0.47215733  0.03161508  0.46851625    -1.08500
O11         O  0.03262411  0.03102138  0.03093817    -1.09200
C12         C  0.00701566  0.07982804  0.07659888     1.06200
C13         C  0.00230031  0.07643777  0.41970028     1.06200
C14         C  0.08176843  0.07548911  0.99990329     1.09100
C15         C  0.42710618  0.08219618  0.99758251     1.06900
H16         H  0.04625642  0.04138867  0.45557169     0.32500
O17         O  0.03306439  0.02942671  0.46857362    -1.29400
H18         H  0.46010989  0.04677774  0.04310294     0.32200
O19         O  0.47204017  0.03305177  0.03057123    -1.31100
O20         O  0.99938067  0.44747566  0.41474772    -0.86900
O21         O  0.99412504  0.45170029  0.08797592    -0.88400
O22         O  0.08758684  0.99624847  0.45141649    -0.87000
O23         O  0.41549401  0.00315158  0.44977267    -0.87000
O24         O  0.41552944  0.00678047  0.05090521    -0.86700
O25         O  0.08631847  0.99592110  0.05151772    -0.86500
O26         O  0.04640339  0.41122421  0.00336413    -0.86900
O27         O  0.44763737  0.41550360  0.00189467    -0.86400
O28         O  0.08440085  0.44683575  0.00151982    -0.87400
O29         O  0.41216488  0.45404507  0.00113636    -0.86600
O30         O  0.05131856  0.99656735  0.41353055    -0.87000
O31         O  0.04963375  0.99857449  0.08851949    -0.86700
O32         O  0.45240732  0.00569539  0.08770860    -0.86400
O33         O  0.45239347  0.00203177  0.41292898    -0.86800
O34         O  0.99670552  0.41138663  0.45289813    -0.87100
O35         O  0.99158449  0.41461371  0.05110678    -0.88400
Zr36       Zr  0.00135389  0.99878973  0.43812564     2.83100
Zr37       Zr  0.00077315  0.00186850  0.06237691     2.83500
Zr38       Zr  0.06196530  0.99796844  0.00099069     2.84100
Zr39       Zr  0.43985050  0.00305467  0.00017988     2.83400
Zr40       Zr  0.99779914  0.43861381  0.00151250     2.84200
O41         O  0.46866883  0.47130514  0.03149615    -1.09000
O42         O  0.03040503  0.46732354  0.47024662    -1.08500
C43         C  0.99764375  0.41946037  0.42441772     1.06200
C44         C  0.99064856  0.42362280  0.07933759     1.08800
C45         C  0.07918083  0.99587820  0.42296791     1.06400
C46         C  0.42438017  0.00287068  0.42137591     1.06700
C47         C  0.42447647  0.00762918  0.07934399     1.06300
C48         C  0.07757008  0.99644948  0.07997426     1.05900
C49         C  0.07471094  0.41894551  0.00260167     1.06300
C50         C  0.41999920  0.42549313  0.00175822     1.05800
H51         H  0.04165488  0.45498667  0.04585405     0.32500
O52         O  0.02991871  0.46819369  0.03255754    -1.30100
H53         H  0.45587197  0.45782075  0.45649341     0.32500
O54         O  0.46898257  0.47020013  0.46911641    -1.31400
O55         O  0.00261183  0.20222004  0.16104261    -0.86900
O56         O  0.99864363  0.19850409  0.33526004    -0.87100
O57         O  0.05093207  0.16408004  0.24883386    -0.88700
O58         O  0.45155851  0.16270436  0.24729403    -0.87500
O59         O  0.41492820  0.19994649  0.24969313    -0.87100
O60         O  0.08662046  0.20197366  0.24875139    -0.88400
O61         O  0.99964802  0.16230481  0.29711618    -0.86900
O62         O  0.00372196  0.16419645  0.19733942    -0.86500
Zr63       Zr  0.00084611  0.18839294  0.24824428     2.84300
O64         O  0.46956017  0.21884473  0.27994868    -1.08500
O65         O  0.03122840  0.21992381  0.21801856    -1.09200
C66         C  0.00375248  0.17398095  0.16921065     1.06200
C67         C  0.99854968  0.17046466  0.32552185     1.06200
C68         C  0.07872322  0.17363258  0.24880243     1.09100
C69         C  0.42361132  0.17167838  0.24809154     1.06900
H70         H  0.04382966  0.20644563  0.29322791     0.32500
O71         O  0.03099654  0.21911579  0.28039181    -1.29400
H72         H  0.45699144  0.20634370  0.20571839     0.32200
O73         O  0.46930550  0.21941764  0.21844102    -1.31100
O74         O  0.99976145  0.29932250  0.33691404    -0.86900
O75         O  0.99426505  0.29856328  0.16132219    -0.88400
O76         O  0.08545448  0.25318894  0.30033035    -0.87000
O77         O  0.41356149  0.25020008  0.30000522    -0.87000
O78         O  0.41298291  0.24823264  0.20062342    -0.86700
O79         O  0.08617149  0.25021717  0.19950134    -0.86500
O80         O  0.04985445  0.33778031  0.24678085    -0.86900
O81         O  0.44975703  0.33790074  0.24886170    -0.86400
O82         O  0.08603649  0.30040722  0.24941979    -0.87400
O83         O  0.41312852  0.30065441  0.24741166    -0.86600
O84         O  0.04876212  0.25104224  0.33727836    -0.87000
O85         O  0.04928929  0.25007012  0.16249937    -0.86700
O86         O  0.44980753  0.24556563  0.16370768    -0.86400
O87         O  0.45049852  0.24857847  0.33730092    -0.86000
O88         O  0.00084821  0.33695133  0.29998957    -0.87100
O89         O  0.99330634  0.33552267  0.19841321    -0.88400
Zr90       Zr  0.99967129  0.24946850  0.31158438     2.83100
Zr91       Zr  0.99972065  0.25049256  0.18784646     2.83500
Zr92       Zr  0.06093541  0.25111799  0.24964962     2.84100
Zr93       Zr  0.43860036  0.25046369  0.24986052     2.83400
Zr94       Zr  0.99957523  0.31260290  0.24947738     2.84200
O95         O  0.46896024  0.28124026  0.21852547    -1.09000
O96         O  0.02978602  0.28128537  0.28075175    -1.08500
C97         C  0.00070818  0.32760573  0.32821479     1.06200
C98         C  0.99152371  0.32649515  0.17003673     1.08800
C99         C  0.07672340  0.25287053  0.32883700     1.06400
C100        C  0.42257556  0.24903156  0.32829101     1.06700
C101        C  0.42176212  0.24522755  0.17252467     1.06300
C102        C  0.07735085  0.24988997  0.17107604     1.05900
C103        C  0.07796233  0.32862845  0.24745824     1.06300
C104        C  0.42177354  0.32897839  0.24749549     1.05800
H105        H  0.04274671  0.29480264  0.20492024     0.32500
O106        O  0.03049837  0.28214221  0.21808064    -1.30100
H107        H  0.45639418  0.29418661  0.29366159     0.32500
O108        O  0.46910317  0.28152102  0.28079125    -1.31400
O109        O  0.33698001  0.50630611  0.20077031    -0.86900
O110        O  0.16486200  0.50029381  0.20027824    -0.87100
O111        O  0.25402377  0.44942690  0.16477045    -0.88700
O112        O  0.24982283  0.05004138  0.16316626    -0.87500
O113        O  0.25001817  0.08781407  0.20004109    -0.87100
O114        O  0.25163617  0.41275447  0.20258644    -0.88400
O115        O  0.20207786  0.49801310  0.16389973    -0.86900
O116        O  0.30049922  0.50322215  0.16365870    -0.86500
Zr117      Zr  0.25128001  0.50029705  0.18893167     2.84300
O118        O  0.22002465  0.03157273  0.21897828    -1.08500
O119        O  0.28203330  0.47023967  0.22065178    -1.09200
C120        C  0.32830590  0.50628923  0.17225277     1.06200
C121        C  0.17400882  0.49875839  0.17205206     1.06200
C122        C  0.25334906  0.42130833  0.17419219     1.09100
C123        C  0.25013342  0.07836541  0.17186342     1.06900
H124        H  0.20836524  0.45652479  0.20720585     0.32500
O125        O  0.22065739  0.46957212  0.22006696    -1.29400
H126        H  0.29311350  0.04566969  0.20697600     0.32200
O127        O  0.28073184  0.03265591  0.21977151    -1.31100
O128        O  0.16414328  0.50025446  0.30029628    -0.86900
O129        O  0.33592153  0.50561637  0.30116092    -0.88400
O130        O  0.20109009  0.41360647  0.25127611    -0.87000
O131        O  0.19953789  0.08775937  0.24717104    -0.87000
O132        O  0.29808863  0.09005285  0.25054050    -0.86700
O133        O  0.30174772  0.41537391  0.25048760    -0.86500
O134        O  0.24948408  0.45234851  0.33915093    -0.86900
O135        O  0.24885195  0.05116811  0.33863895    -0.86400
O136        O  0.25074380  0.41452779  0.30234312    -0.87400
O137        O  0.24856049  0.08813221  0.30092449    -0.86600
O138        O  0.16514929  0.45118555  0.24887347    -0.87000
O139        O  0.33763202  0.45342093  0.24998537    -0.86700
O140        O  0.33540970  0.05349835  0.25117658    -0.86400
O141        O  0.16347795  0.05022950  0.24747978    -0.86800
O142        O  0.20014064  0.50095306  0.33837610    -0.87100
O143        O  0.29911100  0.50333829  0.33800538    -0.88400
Zr144      Zr  0.18947614  0.50094273  0.25033430     2.83100
Zr145      Zr  0.31166103  0.50297918  0.25098590     2.83500
Zr146      Zr  0.25117416  0.43918575  0.25188803     2.84100
Zr147      Zr  0.24939235  0.06335868  0.25045312     2.83400
Zr148      Zr  0.24966615  0.50194248  0.31303912     2.84200
O149        O  0.28018664  0.03304887  0.28210292    -1.09000
O150        O  0.21966687  0.47022376  0.28221819    -1.08500
C151        C  0.17234709  0.50045933  0.32883192     1.06200
C152        C  0.32707076  0.50501422  0.32952759     1.08800
C153        C  0.17307453  0.42285570  0.24989534     1.06400
C154        C  0.17166396  0.07853746  0.24632554     1.06700
C155        C  0.32620722  0.08166779  0.25080611     1.06300
C156        C  0.32955300  0.42498544  0.25002545     1.05900
C157        C  0.25000443  0.42404988  0.33050469     1.06300
C158        C  0.24845992  0.07920166  0.32930155     1.05800
H159        H  0.29433322  0.45903063  0.29545013     0.32500
O160        O  0.28145079  0.47135578  0.28244089    -1.30100
H161        H  0.20576881  0.04519855  0.29426973     0.32500
O162        O  0.21886272  0.03253021  0.28175642    -1.31400
O163        O  0.20154618  0.16357566  0.49906792    -0.86900
O164        O  0.20098837  0.33783451  0.50340353    -0.87100
O165        O  0.16629805  0.24809915  0.05151817    -0.88700
O166        O  0.16508616  0.25232933  0.44993100    -0.87500
O167        O  0.20191197  0.25381545  0.41305984    -0.87100
O168        O  0.20310713  0.24715977  0.08870993    -0.88400
O169        O  0.16466703  0.30043253  0.50230845    -0.86900
O170        O  0.16477598  0.20064033  0.49973012    -0.86500
Zr171      Zr  0.18995825  0.25052236  0.50052033     2.84300
O172        O  0.22058740  0.28240605  0.47049991    -1.08500
O173        O  0.22095858  0.21875148  0.03060445    -1.09200
C174        C  0.17345646  0.17237109  0.49983435     1.06200
C175        C  0.17302084  0.32880538  0.50332693     1.06200
C176        C  0.17509852  0.24707436  0.07997081     1.09100
C177        C  0.17390595  0.25335669  0.42145543     1.06900
H178        H  0.20817628  0.29261728  0.04615558     0.32500
O179        O  0.22076181  0.28044325  0.03274962    -1.29400
H180        H  0.20773407  0.20815359  0.45503706     0.32200
O181        O  0.22045746  0.22051915  0.46816983    -1.31100
O182        O  0.30043745  0.33821532  0.50434241    -0.86900
O183        O  0.30139930  0.16391239  0.49737547    -0.88400
O184        O  0.25219180  0.29717650  0.08999862    -0.87000
O185        O  0.24947752  0.30325989  0.41462002    -0.87000
O186        O  0.25106826  0.20321480  0.41139641    -0.86700
O187        O  0.25144277  0.19756036  0.08571181    -0.86500
O188        O  0.33818562  0.24663711  0.04810900    -0.86900
O189        O  0.33763197  0.25115169  0.44909911    -0.86400
O190        O  0.30251150  0.24539993  0.08611578    -0.87400
O191        O  0.30048899  0.25248627  0.41201969    -0.86600
O192        O  0.25176513  0.33567573  0.05396983    -0.87000
O193        O  0.25031493  0.16151909  0.04723597    -0.86700
O194        O  0.25121747  0.16506279  0.44787799    -0.86400
O195        O  0.24927626  0.33942139  0.45316142    -0.86800
O196        O  0.33768283  0.30135944  0.50294729    -0.87100
O197        O  0.33793362  0.20120303  0.49716968    -0.88400
Zr198      Zr  0.25097165  0.31271364  0.50254273     2.83100
Zr199      Zr  0.25133996  0.18875575  0.49833542     2.83500
Zr200      Zr  0.25211625  0.24846575  0.06239433     2.84100
Zr201      Zr  0.25119706  0.25255617  0.43810528     2.83400
Zr202      Zr  0.31262057  0.25108307  0.49921081     2.84200
O203        O  0.28192628  0.22054715  0.46784405    -1.09000
O204        O  0.28231134  0.28077533  0.03213106    -1.08500
C205        C  0.32853754  0.32953823  0.50464247     1.06200
C206        C  0.32938176  0.17289655  0.49728754     1.08800
C207        C  0.25192506  0.32564306  0.08199480     1.06400
C208        C  0.24878758  0.33110936  0.42459933     1.06700
C209        C  0.25120844  0.17486520  0.41989425     1.06300
C210        C  0.25044018  0.16967745  0.07579947     1.05900
C211        C  0.33033826  0.24456785  0.07649056     1.06300
C212        C  0.32850400  0.25173927  0.42084764     1.05800
H213        H  0.29510024  0.20544841  0.04182161     0.32500
O214        O  0.28245915  0.21882949  0.02970533    -1.30100
H215        H  0.29436028  0.29656587  0.45705689     0.32500
O216        O  0.28181163  0.28329976  0.46959726    -1.31400
C217        C  0.22675224  0.10274547  0.12632424    -0.06200
C218        C  0.25077683  0.10190075  0.14746391    -0.00300
C219        C  0.27510516  0.12282710  0.14448686    -0.08800
C220        C  0.27415026  0.14445340  0.12051921    -0.06200
C221        C  0.25013448  0.14525601  0.09930950    -0.00300
C222        C  0.22611943  0.12385551  0.10186454    -0.08700
C223        C  0.19980168  0.12340483  0.07921964     0.61600
H224        H  0.20825693  0.08684354  0.12937549     0.12300
H225        H  0.29225167  0.16102055  0.11810677     0.12400
C226        C  0.30200709  0.12221941  0.16636929     0.61900
F227        F  0.17759690  0.10273433  0.08785205    -0.23300
F228        F  0.21016386  0.11511543  0.05036207    -0.20600
F229        F  0.18653004  0.15198041  0.07747283    -0.20300
F230        F  0.31397814  0.09297672  0.16792584    -0.20300
F231        F  0.29277675  0.13126584  0.19539856    -0.20700
F232        F  0.32489261  0.14171751  0.15689429    -0.23300
C233        C  0.27638208  0.36972702  0.10732195    -0.06200
C234        C  0.25223472  0.34889211  0.10677967    -0.00300
C235        C  0.22888532  0.35120707  0.12912656    -0.08800
C236        C  0.22995434  0.37542596  0.15056722    -0.06200
C237        C  0.25386015  0.39666193  0.15070912    -0.00300
C238        C  0.27811272  0.39305737  0.12959959    -0.08700
C239        C  0.30625549  0.41286974  0.13142649     0.61600
H240        H  0.29423772  0.36720622  0.09034895     0.12300
H241        H  0.21213423  0.37791343  0.16758109     0.12400
C242        C  0.20308585  0.32821921  0.13043927     0.61900
F243        F  0.32865412  0.40308358  0.11132991    -0.23300
F244        F  0.31800053  0.41204221  0.16095613    -0.20600
F245        F  0.29892692  0.44258649  0.12401564    -0.20300
F246        F  0.21428763  0.30009407  0.13953794    -0.20300
F247        F  0.18962843  0.32526514  0.10184653    -0.20700
F248        F  0.18084094  0.33695879  0.15117673    -0.23300
C249        C  0.22211282  0.38928428  0.36548192    -0.06200
C250        C  0.25001150  0.40056833  0.35490518    -0.00300
C251        C  0.27738414  0.38940584  0.36767934    -0.08800
C252        C  0.27601239  0.36702890  0.39088236    -0.06200
C253        C  0.24820040  0.35549435  0.40122271    -0.00300
C254        C  0.22074075  0.36673770  0.38864013    -0.08700
C255        C  0.19030942  0.35510547  0.39998615     0.61600
H256        H  0.20144710  0.39831495  0.35545818     0.12300
H257        H  0.29667741  0.35818519  0.40103168     0.12400
C258        C  0.30778999  0.40099906  0.35641740     0.61900
F259        F  0.16634886  0.36860666  0.38444177    -0.23300
F260        F  0.18721526  0.36157488  0.43101511    -0.20600
F261        F  0.18851356  0.32381695  0.39568149    -0.20300
F262        F  0.30952621  0.43227592  0.36078055    -0.20300
F263        F  0.31085305  0.39444627  0.32541112    -0.20700
F264        F  0.33173695  0.38758427  0.37197968    -0.23300
C265        C  0.27635240  0.11302157  0.36461172    -0.06200
C266        C  0.24836838  0.10324230  0.35298620    -0.00300
C267        C  0.22119842  0.11718731  0.36323745    -0.08800
C268        C  0.22301439  0.14119298  0.38470361    -0.06200
C269        C  0.25107876  0.15133423  0.39581309    -0.00300
C270        C  0.27821673  0.13730932  0.38569862    -0.08700
C271        C  0.30886272  0.14827052  0.39706547     0.61600
H272        H  0.29674724  0.10143954  0.35704193     0.12300
H273        H  0.20254833  0.15194715  0.39335842     0.12400
C274        C  0.19056704  0.10605674  0.35213981     0.61900
F275        F  0.33255652  0.13265984  0.38317150    -0.23300
F276        F  0.31096774  0.14398589  0.42853572    -0.20600
F277        F  0.31205858  0.17904335  0.39049546    -0.20300
F278        F  0.18670597  0.07590100  0.36088656    -0.20300
F279        F  0.18908772  0.10810520  0.32044191    -0.20700
F280        F  0.16694918  0.12313221  0.36433730    -0.23300
C281        C  0.37272940  0.15448455  0.26470829    -0.06200
C282        C  0.39916567  0.14809855  0.24779635    -0.00300
C283        C  0.40076520  0.12041773  0.23066826    -0.08800
C284        C  0.37623704  0.09981704  0.23217723    -0.06200
C285        C  0.35009360  0.10588904  0.24969918    -0.00300
C286        C  0.34815217  0.13402284  0.26604542    -0.08700
C287        C  0.32105436  0.14215176  0.28600467     0.61600
H288        H  0.37159468  0.17578809  0.27739112     0.12300
H289        H  0.37732811  0.07848064  0.21952761     0.12400
C290        C  0.42766080  0.11257212  0.21025620     0.61900
F291        F  0.32598759  0.16834999  0.30325964    -0.23300
F292        F  0.31539636  0.11848463  0.30619025    -0.20600
F293        F  0.29584030  0.14719294  0.26775496    -0.20300
F294        F  0.45258132  0.10549567  0.22823687    -0.20300
F295        F  0.43447024  0.13696722  0.19130455    -0.20700
F296        F  0.42165005  0.08771717  0.19153284    -0.23300
C297        C  0.35176757  0.37764953  0.22747049    -0.06200
C298        C  0.35404448  0.40135095  0.24919644    -0.00300
C299        C  0.37920229  0.40166232  0.26963015    -0.08800
C300        C  0.40038136  0.37740376  0.26845081    -0.06200
C301        C  0.39792165  0.35342341  0.24701274    -0.00300
C302        C  0.37372961  0.35415765  0.22535505    -0.08700
C303        C  0.37150154  0.33097067  0.19944974     0.61600
H304        H  0.33270317  0.37794084  0.21173773     0.12300
H305        H  0.41934037  0.37705987  0.28431359     0.12400
C306        C  0.38393511  0.42751818  0.29250017     0.61900
F307        F  0.34919521  0.33871168  0.17834169    -0.23300
F308        F  0.36446773  0.30268826  0.21147124    -0.20600
F309        F  0.39882045  0.32923341  0.18383530    -0.20300
F310        F  0.35790237  0.43228778  0.30959350    -0.20300
F311        F  0.39111878  0.45398865  0.27672159    -0.20700
F312        F  0.40735002  0.42130721  0.31281452    -0.23300
C313        C  0.15394636  0.13082919  0.25934701    -0.06200
C314        C  0.14749581  0.10261865  0.24525352    -0.00300
C315        C  0.11861188  0.09851406  0.23115975    -0.08800
C316        C  0.09718870  0.12242113  0.23288116    -0.06200
C317        C  0.10332315  0.15015746  0.24799242    -0.00300
C318        C  0.13237710  0.15449941  0.26159477    -0.08700
C319        C  0.14047012  0.18298369  0.28004529     0.61600
H320        H  0.17614925  0.13403801  0.26940919     0.12300
H321        H  0.07517122  0.11959075  0.22220964     0.12400
C322        C  0.11033025  0.06972188  0.21339942     0.61900
F323        F  0.16844835  0.18022345  0.29426312    -0.23300
F324        F  0.11899060  0.18762534  0.30281087    -0.20600
F325        F  0.14181592  0.20832795  0.26103760    -0.20300
F326        F  0.10753851  0.04528580  0.23335160    -0.20300
F327        F  0.13243529  0.06347197  0.19166395    -0.20700
F328        F  0.08294391  0.07277976  0.19808018    -0.23300
C329        C  0.09552759  0.38224588  0.25530490    -0.06200
C330        C  0.10287303  0.35222517  0.24656961    -0.00300
C331        C  0.13351945  0.34580519  0.23775844    -0.08800
C332        C  0.15530426  0.36948944  0.23921989    -0.06200
C333        C  0.14804827  0.39935398  0.24888602    -0.00300
C334        C  0.11722655  0.40585895  0.25693115    -0.08700
C335        C  0.10670098  0.43722974  0.26799996     0.61600
H336        H  0.07225968  0.38716230  0.26125772     0.12300
H337        H  0.17852116  0.36473232  0.23264059     0.12400
C338        C  0.14364636  0.31448604  0.22613191     0.61900
F339        F  0.07673598  0.43714690  0.27752317    -0.23300
F340        F  0.10895786  0.45830580  0.24434865    -0.20600
F341        F  0.12412274  0.44640711  0.29282926    -0.20300
F342        F  0.12496094  0.30507333  0.20235474    -0.20300
F343        F  0.14280363  0.29339630  0.24986701    -0.20700
F344        F  0.17304422  0.31487015  0.21491805    -0.23300
C345        C  0.40718124  0.24409842  0.11741490    -0.06200
C346        C  0.39813983  0.24130070  0.14829146    -0.00300
C347        C  0.36745614  0.23349696  0.15460072    -0.08800
C348        C  0.34622872  0.23556985  0.13059448    -0.06200
C349        C  0.35493869  0.24105807  0.09991069    -0.00300
C350        C  0.38658553  0.24204710  0.09289562    -0.08700
C351        C  0.39946434  0.23889328  0.06040167     0.61600
H352        H  0.43093643  0.24726692  0.11232966     0.12300
H353        H  0.32247187  0.23216606  0.13584830     0.12400
C354        C  0.35705596  0.22065123  0.18542022     0.61900
F355        F  0.43082774  0.23662773  0.06039237    -0.23300
F356        F  0.39192546  0.26387084  0.04252325    -0.20600
F357        F  0.38833360  0.21248368  0.04699203    -0.20300
F358        F  0.35476523  0.24365090  0.20707648    -0.20300
F359        F  0.37736283  0.19865823  0.19545466    -0.20700
F360        F  0.32895789  0.20670425  0.18312800    -0.23300
C361        C  0.12928708  0.23459907  0.15437632    -0.06200
C362        C  0.10155847  0.24875559  0.14679128    -0.00300
C363        C  0.09816100  0.26147988  0.11681461    -0.08800
C364        C  0.12293626  0.26065392  0.09639202    -0.06200
C365        C  0.15073995  0.24681274  0.10403753    -0.00300
C366        C  0.15376974  0.23283208  0.13349384    -0.08700
C367        C  0.18201341  0.21510927  0.14287843     0.61600
H368        H  0.13158666  0.22444980  0.17699869     0.12300
H369        H  0.12065111  0.27098279  0.07386233     0.12400
C370        C  0.06873372  0.27596648  0.10595010     0.61900
F371        F  0.17780439  0.19915947  0.17009736    -0.23300
F372        F  0.20604241  0.23491713  0.14710787    -0.20600
F373        F  0.18930943  0.19405257  0.12036835    -0.20300
F374        F  0.05985390  0.29859360  0.12635702    -0.20300
F375        F  0.04660971  0.25365883  0.10387500    -0.20700
F376        F  0.07147728  0.28926723  0.07714035    -0.23300
C377        C  0.13113628  0.24932572  0.34403933    -0.06200
C378        C  0.10091581  0.25418174  0.35335909    -0.00300
C379        C  0.09518873  0.25979468  0.38525762    -0.08800
C380        C  0.11984635  0.26010935  0.40596960    -0.06200
C381        C  0.14989983  0.25412274  0.39678051    -0.00300
C382        C  0.15563555  0.24854590  0.36488206    -0.08700
C383        C  0.18698011  0.24060602  0.35229769     0.61600
H384        H  0.13556240  0.24534829  0.31988587     0.12300
H385        H  0.11558938  0.26478887  0.43004426     0.12400
C386        C  0.06352222  0.26556806  0.39810998     0.61900
F387        F  0.18645793  0.23436938  0.32105268    -0.23300
F388        F  0.19798658  0.21480703  0.36702224    -0.20600
F389        F  0.20665082  0.26486202  0.35651252    -0.20300
F390        F  0.04564216  0.23992312  0.39399098    -0.20300
F391        F  0.05055533  0.29051654  0.38354345    -0.20700
F392        F  0.06390658  0.27170947  0.42938129    -0.23300
C393        C  0.38161252  0.27560317  0.35618443    -0.06200
C394        C  0.39886723  0.24896136  0.35228059    -0.00300
C395        C  0.39281705  0.22294880  0.37065842    -0.08800
C396        C  0.36969429  0.22473626  0.39301724    -0.06200
C397        C  0.35221785  0.25138669  0.39675627    -0.00300
C398        C  0.35833553  0.27733281  0.37829227    -0.08700
C399        C  0.34067492  0.30685011  0.38221977     0.61600
H400        H  0.38661260  0.29512111  0.34168515     0.12300
H401        H  0.36492132  0.20524731  0.40762790     0.12400
C402        C  0.41016353  0.19331719  0.36588134     0.61900
F403        F  0.35271599  0.33014980  0.36448623    -0.23300
F404        F  0.34144106  0.31604292  0.41270761    -0.20600
F405        F  0.31090635  0.30238899  0.37331065    -0.20300
F406        F  0.44043348  0.19759305  0.37299399    -0.20300
F407        F  0.40763433  0.18424638  0.33548080    -0.20700
F408        F  0.39907656  0.16996304  0.38416996    -0.23300
C409        C  0.39650519  0.38012364  0.02628035    -0.06200
C410        C  0.39557883  0.40205443  0.00270029    -0.00300
C411        C  0.37233364  0.40028567  0.48022711    -0.08800
C412        C  0.35093791  0.37633712  0.48212683    -0.06200
C413        C  0.35187176  0.35425299  0.00564125    -0.00300
C414        C  0.37466543  0.35673101  0.02875941    -0.08700
C415        C  0.37682950  0.33662048  0.05717606     0.61600
H416        H  0.41422750  0.38173924  0.04355901     0.12300
H417        H  0.33319445  0.37458764  0.46495084     0.12400
C418        C  0.37028855  0.42324358  0.45401985     0.61900
F419        F  0.37606069  0.35466857  0.58319147    -0.23300
F420        F  0.40434621  0.32110605  0.55663590    -0.20600
F421        F  0.35374218  0.31547709  0.05947415    -0.20300
F422        F  0.39817398  0.42655661  0.43987561    -0.20300
F423        F  0.36102075  0.45131098  0.96533041    -0.20700
F424        F  0.34982343  0.41407886  0.93171087    -0.23300
C425        C  0.37994573  0.15422155  0.97942625    -0.06200
C426        C  0.35391918  0.14915711  0.99749214    -0.00300
C427        C  0.35273096  0.12264531  0.51642484    -0.08800
C428        C  0.37735372  0.10197166  0.51591160    -0.06200
C429        C  0.40329693  0.10677201  0.99754307    -0.00300
C430        C  0.40466860  0.13353780  0.97896866    -0.08700
C431        C  0.43142884  0.13994170  0.95788092     0.61600
H432        H  0.38062180  0.17462323  0.96529926     0.12300
H433        H  0.37651922  0.08158215  0.53005090     0.12400
C434        C  0.32607915  0.11637523  0.53774732     0.61900
F435        F  0.42661040  0.16558938  0.43990284    -0.23300
F436        F  0.43624416  0.11532760  0.43861361    -0.20600
F437        F  0.45723559  0.14515855  0.97516403    -0.20300
F438        F  0.30077754  0.10874934  0.52056787    -0.20300
F439        F  0.31996028  0.14211011  0.05539707    -0.20700
F440        F  0.33211953  0.09254968  0.05782524    -0.23300
C441        C  0.12579426  0.40141952  0.01880300    -0.06200
C442        C  0.09846362  0.39444928  0.00368458    -0.00300
C443        C  0.09556971  0.36549285  0.48896551    -0.08800
C444        C  0.12055690  0.34520032  0.48933567    -0.06200
C445        C  0.14816426  0.35241308  0.00412817    -0.00300
C446        C  0.15060530  0.38105403  0.01956724    -0.08700
C447        C  0.17888559  0.39052472  0.03714946     0.61600
H448        H  0.12767790  0.42342655  0.03009517     0.12300
H449        H  0.11869663  0.32332756  0.47779419     0.12400
C450        C  0.06662059  0.35604121  0.47249434     0.61900
F451        F  0.17392710  0.41634175  0.55489711    -0.23300
F452        F  0.20201097  0.39685060  0.51665244    -0.20600
F453        F  0.18780273  0.36741004  0.05684691    -0.20300
F454        F  0.05894936  0.37769200  0.45059788    -0.20300
F455        F  0.04320483  0.35311984  0.99383057    -0.20700
F456        F  0.06970158  0.32817194  0.95791327    -0.23300
C457        C  0.10051135  0.12682399  0.01572071    -0.06200
C458        C  0.10641447  0.09917550  0.00021737    -0.00300
C459        C  0.13478290  0.09557769  0.48504310    -0.08800
C460        C  0.15566152  0.12009042  0.48543084    -0.06200
C461        C  0.14957215  0.14795746  0.00051365    -0.00300
C462        C  0.12155744  0.15111776  0.01656027    -0.08700
C463        C  0.11385607  0.17948452  0.03534656     0.61600
H464        H  0.07898836  0.12924955  0.02750652     0.12300
H465        H  0.17712301  0.11773061  0.47353192     0.12400
C466        C  0.14296133  0.06654044  0.46758820     0.61900
F467        F  0.08834444  0.17521291  0.05343848    -0.23300
F468        F  0.10817192  0.20385993  0.51576486    -0.20600
F469        F  0.13763033  0.18656893  0.05483244    -0.20300
F470        F  0.12055832  0.05989200  0.44632012    -0.20300
F471        F  0.14614447  0.04251336  0.98795781    -0.20700
F472        F  0.17009797  0.06938039  0.45177801    -0.23300
C473        C  0.37035488  0.01006337  0.40651812    -0.06200
C474        C  0.40026372  0.00360067  0.39701116    -0.00300
C475        C  0.40590374  0.49889501  0.36456799    -0.08800
C476        C  0.38126405  0.50006542  0.34407775    -0.06200
C477        C  0.35110760  0.00461274  0.35421798    -0.00300
C478        C  0.34562202  0.01045913  0.38602532    -0.08700
C479        C  0.31416454  0.01726032  0.39891963     0.61600
H480        H  0.36623918  0.01473079  0.43061393     0.12300
H481        H  0.38545156  0.49621460  0.31988227     0.12400
C482        C  0.43716188  0.49138796  0.35148454     0.61900
F483        F  0.31489258  0.02439350  0.42998550    -0.23300
F484        F  0.29577364  0.49221642  0.39495046    -0.20600
F485        F  0.30156172  0.04201514  0.38372369    -0.20300
F486        F  0.44862351  0.46546582  0.36562331    -0.20300
F487        F  0.45632893  0.01416646  0.35584538    -0.20700
F488        F  0.43634295  0.48558906  0.32013857    -0.23300
C489        C  0.09982284  0.01630056  0.37431499    -0.06200
C490        C  0.10334636  0.99608449  0.39916000    -0.00300
C491        C  0.12948226  0.47609536  0.40054627    -0.08800
C492        C  0.15150034  0.47881479  0.37715411    -0.06200
C493        C  0.14804937  0.00004148  0.35242055    -0.00300
C494        C  0.12161861  0.01864223  0.35076692    -0.08700
C495        C  0.11634956  0.04126090  0.32468014     0.61600
H496        H  0.07967863  0.03051709  0.37360147     0.12300
H497        H  0.17158650  0.46449720  0.37770607     0.12400
C498        C  0.13364580  0.45209824  0.42557069     0.61900
F499        F  0.09155727  0.05997669  0.33023150    -0.23300
F500        F  0.11136349  0.52552632  0.29788911    -0.20600
F501        F  0.14142252  0.05983255  0.32106991    -0.20300
F502        F  0.10769496  0.43451109  0.42810906    -0.20300
F503        F  0.13842581  0.96731636  0.45382671    -0.20700
F504        F  0.15762970  0.43258545  0.41916240    -0.23300
C505        C  0.12088953  0.98876813  0.15650221    -0.06200
C506        C  0.15058909  0.99617682  0.14731675    -0.00300
C507        C  0.15599850  0.50262171  0.11565780    -0.08800
C508        C  0.13130828  0.50313279  0.09514463    -0.06200
C509        C  0.10180264  0.99517563  0.10421578    -0.00300
C510        C  0.09652741  0.98736363  0.13564611    -0.08700
C511        C  0.06601429  0.97616815  0.14747365     0.61600
H512        H  0.11677941  0.98362381  0.18051088     0.12300
H513        H  0.13545247  0.50848045  0.07120187     0.12400
C514        C  0.18780115  0.50711584  0.10263455     0.61900
F515        F  0.06730955  0.46700968  0.17776350    -0.23300
F516        F  0.05661137  0.45248659  0.12967284    -0.20600
F517        F  0.04484134  0.99946321  0.14644427    -0.20300
F518        F  0.20502522  0.48109296  0.10774154    -0.20300
F519        F  0.20071858  0.03254301  0.11659714    -0.20700
F520        F  0.18775996  0.01267655  0.07124002    -0.23300
C521        C  0.36951687  0.51136010  0.09447665    -0.06200
C522        C  0.40069406  0.01055149  0.10400028    -0.00300
C523        C  0.40709810  0.01420869  0.13604918    -0.08800
C524        C  0.38303936  0.01119173  0.15726259    -0.06200
C525        C  0.35246094  0.00952139  0.14792874    -0.00300
C526        C  0.34553390  0.51343111  0.11577671    -0.08700
C527        C  0.31423043  0.52219901  0.10369149     0.61600
H528        H  0.36419690  0.51085274  0.07015814     0.12300
H529        H  0.38810870  0.01129999  0.18163684     0.12400
C530        C  0.43797004  0.02441329  0.14825047     0.61900
F531        F  0.31571559  0.02920476  0.07268495    -0.23300
F532        F  0.30319268  0.04569139  0.11955073    -0.20600
F533        F  0.29434851  0.49798414  0.10582197    -0.20300
F534        F  0.44662877  0.05101279  0.13343740    -0.20300
F535        F  0.45948291  0.50347272  0.14343396    -0.20700
F536        F  0.43679583  0.53170972  0.17889276    -0.23300
C537        C  0.01656526  0.15016981  0.37501677    -0.06200
C538        C  0.99857377  0.14570667  0.34884458    -0.00300
C539        C  0.48189293  0.11844804  0.34612518    -0.08800
C540        C  0.48378339  0.09646845  0.36982768    -0.06200
C541        C  0.00215034  0.10045355  0.39541146    -0.00300
C542        C  0.01953573  0.12771511  0.39790373    -0.08700
C543        C  0.04271250  0.13262111  0.42337209     0.61600
H544        H  0.02923278  0.17129432  0.37693371     0.12300
H545        H  0.47052883  0.07569095  0.36834645     0.12400
C546        C  0.46184624  0.11214128  0.31827347     0.61900
F547        F  0.06095191  0.15775503  0.41765119    -0.23300
F548        F  0.06140861  0.10724923  0.42554612    -0.20600
F549        F  0.02825580  0.13754140  0.45117529    -0.20300
F550        F  0.47966942  0.10769476  0.29243783    -0.20300
F551        F  0.44240716  0.13649574  0.31331340    -0.20700
F552        F  0.44434683  0.08616562  0.32216790    -0.23300
C553        C  0.01815911  0.39850658  0.37602295    -0.06200
C554        C  0.99810290  0.39479732  0.40084647    -0.00300
C555        C  0.48026153  0.36782016  0.40219931    -0.08800
C556        C  0.48160312  0.34690915  0.37760614    -0.06200
C557        C  0.00088548  0.35109257  0.35280353    -0.00300
C558        C  0.02053263  0.37669779  0.35237812    -0.08700
C559        C  0.04446041  0.38078378  0.32762149     0.61600
H560        H  0.03247902  0.41861694  0.37550913     0.12300
H561        H  0.46780652  0.32643812  0.37809437     0.12400
C562        C  0.46011885  0.36031059  0.42961034     0.61900
F563        F  0.06528979  0.40315005  0.33547032    -0.23300
F564        F  0.03059998  0.38930732  0.30040774    -0.20600
F565        F  0.06029386  0.35373703  0.32332106    -0.20300
F566        F  0.44011959  0.38401941  0.43497329    -0.20300
F567        F  0.47776516  0.35552029  0.45547912    -0.20700
F568        F  0.44320660  0.33403713  0.42479752    -0.23300
C569        C  0.98479150  0.36864022  0.09311124    -0.06200
C570        C  0.98597601  0.39926433  0.10307173    -0.00300
C571        C  0.48177821  0.40540005  0.13451832    -0.08800
C572        C  0.48438872  0.38120187  0.15550105    -0.06200
C573        C  0.98652238  0.35034041  0.14593741    -0.00300
C574        C  0.98301808  0.34410398  0.11387796    -0.08700
C575        C  0.97601533  0.31251427  0.10106391     0.61600
H576        H  0.98512632  0.36373004  0.06868881     0.12300
H577        H  0.48458913  0.38640376  0.17986897     0.12400
C578        C  0.47256006  0.43648722  0.14653840     0.61900
F579        F  0.50006493  0.29416361  0.10235799    -0.23300
F580        F  0.45175671  0.29976600  0.11891687    -0.20600
F581        F  0.96709095  0.31364784  0.07048661    -0.20300
F582        F  0.44920945  0.44777459  0.12848893    -0.20300
F583        F  0.99675171  0.45580028  0.14673479    -0.20700
F584        F  0.96166701  0.43442488  0.17701792    -0.23300
C585        C  0.02905743  0.12972741  0.14459097    -0.06200
C586        C  0.00524113  0.15111954  0.14423439    -0.00300
C587        C  0.48117540  0.14937673  0.12067855    -0.08800
C588        C  0.48240362  0.12516505  0.09944380    -0.06200
C589        C  0.00804871  0.10441595  0.09969920    -0.00300
C590        C  0.03142939  0.10688437  0.12186629    -0.08700
C591        C  0.05893609  0.08600013  0.12108167     0.61600
H592        H  0.04599653  0.13125820  0.16261881     0.12300
H593        H  0.46510119  0.12297299  0.08185852     0.12400
C594        C  0.45671816  0.17370339  0.11722178     0.61900
F595        F  0.08199103  0.09673825  0.13980318    -0.23300
F596        F  0.07026248  0.08396581  0.09141231    -0.20600
F597        F  0.05074694  0.05725408  0.13107339    -0.20300
F598        F  0.47007645  0.20140338  0.11016521    -0.20300
F599        F  0.44037348  0.17653067  0.14421635    -0.20700
F600        F  0.43655527  0.16681655  0.09377047    -0.23300
O601        O  0.00609140  0.05195797  0.58650635    -0.86900
O602        O  0.00164981  0.04808047  0.91110174    -0.87100
O603        O  0.05406607  0.08535471  0.49862137    -0.88700
O604        O  0.45543644  0.08990733  0.49785090    -0.87500
O605        O  0.41733594  0.05426212  0.49822075    -0.87100
O606        O  0.08929168  0.04685858  0.50153563    -0.88400
O607        O  0.00262965  0.08565833  0.94789465    -0.86900
O608        O  0.00583552  0.08821352  0.54816708    -0.86500
Zr609      Zr  0.00334814  0.06228427  0.49872626     2.84300
O610        O  0.47219274  0.03161091  0.96851070    -1.08500
O611        O  0.03262594  0.03099414  0.53095769    -1.09200
C612        C  0.00702328  0.07981227  0.57664042     1.06200
C613        C  0.00226624  0.07645289  0.91968660     1.06200
C614        C  0.08176362  0.07544941  0.50000000     1.09100
C615        C  0.42706575  0.08218311  0.49760339     1.06900
H616        H  0.04624992  0.04141104  0.95553021     0.32500
O617        O  0.03306365  0.02945276  0.96854174    -1.29400
H618        H  0.46008127  0.04676294  0.54310668     0.32200
O619        O  0.47201488  0.03304251  0.53057246    -1.31100
O620        O  0.99940324  0.44746074  0.91476611    -0.86900
O621        O  0.99415070  0.45168770  0.58795770    -0.88400
O622        O  0.08756410  0.99626070  0.95139290    -0.87000
O623        O  0.41552743  0.00315917  0.94976442    -0.87000
O624        O  0.41551484  0.00677893  0.55093604    -0.86700
O625        O  0.08629776  0.99580175  0.55154883    -0.86500
O626        O  0.04643596  0.41120817  0.50326518    -0.86900
O627        O  0.44765961  0.41548273  0.50188309    -0.86400
O628        O  0.08443134  0.44682408  0.50142684    -0.87400
O629        O  0.41217903  0.45401534  0.50112514    -0.86600
O630        O  0.05129261  0.99653839  0.91351214    -0.87000
O631        O  0.04961463  0.99848252  0.58854713    -0.86700
O632        O  0.45240742  0.00569703  0.58772202    -0.86400
O633        O  0.45242401  0.00198610  0.91292075    -0.86800
O634        O  0.99674157  0.41137988  0.95292756    -0.87100
O635        O  0.99160508  0.41461467  0.55107277    -0.88400
Zr636      Zr  0.00134071  0.99880597  0.93812135     2.83100
Zr637      Zr  0.00076734  0.00185080  0.56239284     2.83500
Zr638      Zr  0.06196506  0.99792900  0.50101324     2.84100
Zr639      Zr  0.43982353  0.00304616  0.50018919     2.83400
Zr640      Zr  0.99784278  0.43861713  0.50148142     2.84200
O641        O  0.46868672  0.47130481  0.53149132    -1.09000
O642        O  0.03036309  0.46732284  0.97028726    -1.08500
C643        C  0.99769174  0.41944749  0.92444528     1.06200
C644        C  0.99065432  0.42361470  0.57930598     1.08800
C645        C  0.07915490  0.99585861  0.92294818     1.06400
C646        C  0.42441224  0.00285236  0.92136838     1.06700
C647        C  0.42447453  0.00763046  0.57937355     1.06300
C648        C  0.07754868  0.99632363  0.58000575     1.05900
C649        C  0.07474175  0.41893260  0.50249019     1.06300
C650        C  0.42001823  0.42546194  0.50174311     1.05800
H651        H  0.04170951  0.45497418  0.54581367     0.32500
O652        O  0.02997159  0.46818799  0.53252728    -1.30100
H653        H  0.45586864  0.45781522  0.95649349     0.32500
O654        O  0.46897858  0.47019500  0.96911634    -1.31400
O655        O  0.00255830  0.20225716  0.66104025    -0.86900
O656        O  0.99862699  0.19853757  0.83526016    -0.87100
O657        O  0.05089678  0.16410837  0.74887004    -0.88700
O658        O  0.45154027  0.16272013  0.74732565    -0.87500
O659        O  0.41491475  0.19996677  0.74968650    -0.87100
O660        O  0.08660782  0.20198014  0.74878015    -0.88400
O661        O  0.99958997  0.16232903  0.79712315    -0.86900
O662        O  0.00368857  0.16424299  0.69734456    -0.86500
Zr663      Zr  0.00081936  0.18843076  0.74825692     2.84300
O664        O  0.46954718  0.21886395  0.77995011    -1.08500
O665        O  0.03120495  0.21994536  0.71801965    -1.09200
C666        C  0.00370797  0.17402095  0.66921318     1.06200
C667        C  0.99850394  0.17049538  0.82552797     1.06200
C668        C  0.07869335  0.17364424  0.74884100     1.09100
C669        C  0.42359257  0.17169432  0.74810799     1.06900
H670        H  0.04382129  0.20647092  0.79323351     0.32500
O671        O  0.03099328  0.21914273  0.78039339    -1.29400
H672        H  0.45696575  0.20635681  0.70572627     0.32200
O673        O  0.46928454  0.21942782  0.71844827    -1.31100
O674        O  0.99980725  0.29934773  0.83691355    -0.86900
O675        O  0.99422216  0.29854741  0.66127848    -0.88400
O676        O  0.08547288  0.25322132  0.80032837    -0.87000
O677        O  0.41355108  0.25021600  0.80001212    -0.87000
O678        O  0.41297335  0.24829146  0.70063056    -0.86700
O679        O  0.08613152  0.25019544  0.69945171    -0.86500
O680        O  0.04988255  0.33779869  0.74675732    -0.86900
O681        O  0.44977419  0.33793893  0.74883460    -0.86400
O682        O  0.08605095  0.30041188  0.74940804    -0.87400
O683        O  0.41313701  0.30069812  0.74740731    -0.86600
O684        O  0.04877300  0.25110731  0.83727162    -0.87000
O685        O  0.04922313  0.25007039  0.66247659    -0.86700
O686        O  0.44977817  0.24559785  0.66369990    -0.86400
O687        O  0.45049178  0.24861661  0.83730524    -0.86000
O688        O  0.00091686  0.33698414  0.79999536    -0.87100
O689        O  0.99327766  0.33551029  0.69836629    -0.88400
Zr690      Zr  0.99968100  0.24950630  0.81158374     2.83100
Zr691      Zr  0.99968800  0.25051798  0.68785875     2.83500
Zr692      Zr  0.06093939  0.25113101  0.74963773     2.84100
Zr693      Zr  0.43858920  0.25048926  0.74986614     2.83400
Zr694      Zr  0.99959636  0.31264456  0.74946686     2.84200
O695        O  0.46895493  0.28125671  0.71853141    -1.09000
O696        O  0.02979428  0.28130678  0.78073352    -1.08500
C697        C  0.00077686  0.32762966  0.82822025     1.06200
C698        C  0.99147882  0.32647815  0.66998887     1.08800
C699        C  0.07673622  0.25292537  0.82883667     1.06400
C700        C  0.42256715  0.24905843  0.82829754     1.06700
C701        C  0.42173581  0.24528290  0.67252830     1.06300
C702        C  0.07728797  0.24987238  0.67103076     1.05900
C703        C  0.07798618  0.32863547  0.74744724     1.06300
C704        C  0.42179034  0.32902129  0.74747316     1.05800
H705        H  0.04274738  0.29481539  0.70490011     0.32500
O706        O  0.03049994  0.28216290  0.71806943    -1.30100
H707        H  0.45639464  0.29421200  0.79366040     0.32500
O708        O  0.46910196  0.28154479  0.78078894    -1.31400
O709        O  0.33699196  0.50628564  0.70080134    -0.86900
O710        O  0.16485084  0.50023927  0.70028669    -0.87100
O711        O  0.25401138  0.44939915  0.66479802    -0.88700
O712        O  0.24976722  0.05003692  0.66319026    -0.87500
O713        O  0.24994955  0.08780641  0.70006661    -0.87100
O714        O  0.25159354  0.41273832  0.70262383    -0.88400
O715        O  0.20207969  0.49792781  0.66392117    -0.86900
O716        O  0.30050959  0.50319341  0.66369426    -0.86500
Zr717      Zr  0.25127199  0.50027463  0.68894705     2.84300
O718        O  0.21999139  0.03156483  0.71900354    -1.08500
O719        O  0.28203176  0.47023499  0.72067397    -1.09200
C720        C  0.32831924  0.50625215  0.67228548     1.06200
C721        C  0.17400980  0.49868111  0.67206364     1.06200
C722        C  0.25331040  0.42128315  0.67422541     1.09100
C723        C  0.25006569  0.07836104  0.67188846     1.06900
H724        H  0.20836828  0.45650386  0.70725211     0.32500
O725        O  0.22065755  0.46956183  0.72010531    -1.29400
H726        H  0.29307964  0.04568427  0.70701293     0.32200
O727        O  0.28070085  0.03266599  0.71980779    -1.31100
O728        O  0.16413228  0.50023589  0.80033931    -0.86900
O729        O  0.33592402  0.50567791  0.80114875    -0.88400
O730        O  0.20111469  0.41359538  0.75136834    -0.87000
O731        O  0.19946168  0.08772097  0.74720253    -0.87000
O732        O  0.29803484  0.09006742  0.75055534    -0.86700
O733        O  0.30175560  0.41538073  0.75049697    -0.86500
O734        O  0.24949748  0.45238636  0.83918867    -0.86900
O735        O  0.24883413  0.05119624  0.83866591    -0.86400
O736        O  0.25078485  0.41455221  0.80239579    -0.87400
O737        O  0.24851475  0.08814706  0.80093863    -0.86600
O738        O  0.16516266  0.45116122  0.74891029    -0.87000
O739        O  0.33762308  0.45344345  0.74999001    -0.86700
O740        O  0.33536011  0.05352174  0.75123407    -0.86400
O741        O  0.16340762  0.05018653  0.74750291    -0.86800
O742        O  0.20013426  0.50094554  0.83841434    -0.87100
O743        O  0.29911987  0.50338729  0.83799995    -0.88400
Zr744      Zr  0.18945575  0.50092939  0.75035807     2.83100
Zr745      Zr  0.31164360  0.50299846  0.75099432     2.83500
Zr746      Zr  0.25118372  0.43918729  0.75192621     2.84100
Zr747      Zr  0.24934354  0.06336069  0.75047858     2.83400
Zr748      Zr  0.24965701  0.50196406  0.81305542     2.84200
O749        O  0.28015840  0.03307368  0.78213114    -1.09000
O750        O  0.21966578  0.47022911  0.78224430    -1.08500
C751        C  0.17233732  0.50043962  0.82887701     1.06200
C752        C  0.32707852  0.50507941  0.82951557     1.08800
C753        C  0.17309917  0.42283679  0.74996875     1.06400
C754        C  0.17158696  0.07849604  0.74635686     1.06700
C755        C  0.32615571  0.08169024  0.75084070     1.06300
C756        C  0.32955568  0.42500451  0.75002582     1.05900
C757        C  0.25003403  0.42408566  0.83055371     1.06300
C758        C  0.24842819  0.07922576  0.82931762     1.05800
H759        H  0.29434210  0.45905949  0.79547877     0.32500
O760        O  0.28145227  0.47137567  0.78246792    -1.30100
H761        H  0.20573095  0.04519483  0.79429963     0.32500
O762        O  0.21882906  0.03252914  0.78178841    -1.31400
O763        O  0.20156823  0.16360064  0.99904936    -0.86900
O764        O  0.20096868  0.33784185  0.00349463    -0.87100
O765        O  0.16620976  0.24812777  0.55142537    -0.88700
O766        O  0.16504067  0.25235860  0.95001114    -0.87500
O767        O  0.20186331  0.25384414  0.91313772    -0.87100
O768        O  0.20299940  0.24718211  0.58864003    -0.88400
O769        O  0.16465458  0.30043521  0.00241827    -0.86900
O770        O  0.16479530  0.20066375  0.99974002    -0.86500
Zr771      Zr  0.18997132  0.25053897  0.00057688     2.84300
O772        O  0.22056962  0.28243393  0.97053532    -1.08500
O773        O  0.22091902  0.21874687  0.53058229    -1.09200
C774        C  0.17347824  0.17239647  0.99981657     1.06200
C775        C  0.17300077  0.32881021  0.00344083     1.06200
C776        C  0.17499403  0.24709905  0.57988207     1.09100
C777        C  0.17385894  0.25338303  0.92153407     1.06900
H778        H  0.20813729  0.29261781  0.54609362     0.32500
O779        O  0.22073254  0.28043632  0.53270251    -1.29400
H780        H  0.20773013  0.20819435  0.95507228     0.32200
O781        O  0.22046102  0.22055388  0.96820123    -1.31100
O782        O  0.30042128  0.33825318  0.00434471    -0.86900
O783        O  0.30142718  0.16392586  0.99734007    -0.88400
O784        O  0.25209371  0.29717415  0.58999427    -0.87000
O785        O  0.24942123  0.30330781  0.91465376    -0.87000
O786        O  0.25100109  0.20326600  0.91138957    -0.86700
O787        O  0.25132288  0.19757128  0.58572435    -0.86500
O788        O  0.33813717  0.24662903  0.54813809    -0.86900
O789        O  0.33760995  0.25117565  0.94906601    -0.86400
O790        O  0.30244613  0.24540474  0.58612927    -0.87400
O791        O  0.30045094  0.25251941  0.91200107    -0.86600
O792        O  0.25172472  0.33566313  0.55395380    -0.87000
O793        O  0.25022667  0.16151781  0.54726063    -0.86700
O794        O  0.25117101  0.16510404  0.94785997    -0.86400
O795        O  0.24922584  0.33945715  0.95320644    -0.86800
O796        O  0.33767753  0.30140692  0.00292994    -0.87100
O797        O  0.33795673  0.20122363  0.99713196    -0.88400
Zr798      Zr  0.25096580  0.31273257  0.00256958     2.83100
Zr799      Zr  0.25136604  0.18877658  0.99832488     2.83500
Zr800      Zr  0.25205271  0.24846583  0.56238780     2.84100
Zr801      Zr  0.25117424  0.25259624  0.93812237     2.83400
Zr802      Zr  0.31264026  0.25111205  0.99919139     2.84200
O803        O  0.28193179  0.22058269  0.96782823    -1.09000
O804        O  0.28228371  0.28075661  0.53213565    -1.08500
C805        C  0.32852333  0.32958355  0.00463322     1.06200
C806        C  0.32940970  0.17291381  0.99724990     1.08800
C807        C  0.25184599  0.32563891  0.58198453     1.06400
C808        C  0.24872794  0.33115382  0.92464338     1.06700
C809        C  0.25113594  0.17491370  0.91987922     1.06300
C810        C  0.25031786  0.16968442  0.57582234     1.05900
C811        C  0.33027826  0.24457155  0.57651560     1.06300
C812        C  0.32846934  0.25176180  0.92082016     1.05800
H813        H  0.29504872  0.20543479  0.54185545     0.32500
O814        O  0.28241721  0.21881496  0.52972634    -1.30100
H815        H  0.29433979  0.29660557  0.95705977     0.32500
O816        O  0.28180227  0.28333293  0.96960564    -1.31400
C817        C  0.22674625  0.10261601  0.62624733    -0.06200
C818        C  0.25068727  0.10190153  0.64749150    -0.00300
C819        C  0.27491230  0.12296649  0.64462321    -0.08800
C820        C  0.27394202  0.14458394  0.62065041    -0.06200
C821        C  0.25000494  0.14527111  0.59934572    -0.00300
C822        C  0.22608155  0.12375144  0.60180785    -0.08700
C823        C  0.19982141  0.12319911  0.57909438     0.61600
H824        H  0.20834116  0.08658551  0.62919888     0.12300
H825        H  0.29197431  0.16123723  0.61830640     0.12400
C826        C  0.30173426  0.12250988  0.66661259     0.61900
F827        F  0.17769069  0.10241729  0.58765243    -0.23300
F828        F  0.21028867  0.11498464  0.55025523    -0.20600
F829        F  0.18641839  0.15171206  0.57734007    -0.20300
F830        F  0.31385846  0.09333388  0.66822014    -0.20300
F831        F  0.29234825  0.13151322  0.69560357    -0.20700
F832        F  0.32454992  0.14213303  0.65722606    -0.23300
C833        C  0.27631027  0.36971036  0.60733340    -0.06200
C834        C  0.25214872  0.34889185  0.60677210    -0.00300
C835        C  0.22879900  0.35120955  0.62912163    -0.08800
C836        C  0.22988621  0.37541388  0.65058226    -0.06200
C837        C  0.25380634  0.39663451  0.65073953    -0.00300
C838        C  0.27805644  0.39302408  0.62962853    -0.08700
C839        C  0.30621213  0.41281689  0.63146798     0.61600
H840        H  0.29416591  0.36719093  0.59036022     0.12300
H841        H  0.21206744  0.37790376  0.66759710     0.12400
C842        C  0.20297473  0.32824634  0.63041343     0.61900
F843        F  0.32864138  0.40296394  0.61143953    -0.23300
F844        F  0.31790277  0.41204678  0.66102124    -0.20600
F845        F  0.29891959  0.44252335  0.62397608    -0.20300
F846        F  0.21413783  0.30010389  0.63950992    -0.20300
F847        F  0.18952971  0.32531394  0.60181317    -0.20700
F848        F  0.18072637  0.33700613  0.65113933    -0.23300
C849        C  0.22210852  0.38937116  0.86554609    -0.06200
C850        C  0.25002080  0.40061724  0.85496502    -0.00300
C851        C  0.27737948  0.38944799  0.86776388    -0.08800
C852        C  0.27598140  0.36706132  0.89095349    -0.06200
C853        C  0.24815736  0.35554772  0.90127989    -0.00300
C854        C  0.22070956  0.36683970  0.88871655    -0.08700
C855        C  0.19026469  0.35528543  0.90010421     0.61600
H856        H  0.20145330  0.39842415  0.85552014     0.12300
H857        H  0.29663561  0.35819841  0.90111019     0.12400
C858        C  0.30779882  0.40105098  0.85655435     0.61900
F859        F  0.16631665  0.36886801  0.88461102    -0.23300
F860        F  0.18723896  0.36174397  0.93114271    -0.20600
F861        F  0.18837574  0.32400483  0.89578198    -0.20300
F862        F  0.30951700  0.43232869  0.86092154    -0.20300
F863        F  0.31091575  0.39449703  0.82555490    -0.20700
F864        F  0.33172330  0.38764511  0.87215972    -0.23300
C865        C  0.27630606  0.11308831  0.86459382    -0.06200
C866        C  0.24832631  0.10327444  0.85299016    -0.00300
C867        C  0.22114706  0.11720095  0.86323930    -0.08800
C868        C  0.22294501  0.14120889  0.88470524    -0.06200
C869        C  0.25100521  0.15138452  0.89579560    -0.00300
C870        C  0.27815215  0.13738453  0.88567151    -0.08700
C871        C  0.30878959  0.14840159  0.89700251     0.61600
H872        H  0.29671289  0.10154430  0.85699294     0.12300
H873        H  0.20247122  0.15194534  0.89336309     0.12400
C874        C  0.19052888  0.10606610  0.85210928     0.61900
F875        F  0.33249441  0.13275301  0.88317242    -0.23300
F876        F  0.31089587  0.14423673  0.92848908    -0.20600
F877        F  0.31196100  0.17915146  0.89031488    -0.20300
F878        F  0.18669379  0.07588492  0.86077833    -0.20300
F879        F  0.18906008  0.10819068  0.82041584    -0.20700
F880        F  0.16689134  0.12308865  0.86434089    -0.23300
C881        C  0.37263507  0.15457514  0.76459573    -0.06200
C882        C  0.39914026  0.14811172  0.74782051    -0.00300
C883        C  0.40079840  0.12035129  0.73082629    -0.08800
C884        C  0.37626474  0.09975737  0.73234359    -0.06200
C885        C  0.35004761  0.10591243  0.74972531    -0.00300
C886        C  0.34803835  0.13413293  0.76591408    -0.08700
C887        C  0.32082299  0.14241141  0.78565004     0.61600
H888        H  0.37145024  0.17593714  0.77717251     0.12300
H889        H  0.37740706  0.07836210  0.71980035     0.12400
C890        C  0.42776097  0.11240616  0.71054208     0.61900
F891        F  0.32567065  0.16871697  0.80276338    -0.23300
F892        F  0.31500641  0.11888501  0.80595726    -0.20600
F893        F  0.29573238  0.14736230  0.76720108    -0.20300
F894        F  0.45262272  0.10541518  0.72863860    -0.20300
F895        F  0.43463209  0.13670643  0.69148921    -0.20700
F896        F  0.42181214  0.08745938  0.69192341    -0.23300
C897        C  0.35182591  0.37772629  0.72740192    -0.06200
C898        C  0.35405650  0.40138238  0.74918312    -0.00300
C899        C  0.37919126  0.40167416  0.76964523    -0.08800
C900        C  0.40036689  0.37741248  0.76847154    -0.06200
C901        C  0.39794817  0.35347332  0.74698300    -0.00300
C902        C  0.37381632  0.35426379  0.72526062    -0.08700
C903        C  0.37171508  0.33119586  0.69923828     0.61600
H904        H  0.33279040  0.37804297  0.71163425     0.12300
H905        H  0.41929734  0.37704015  0.78436883     0.12400
C906        C  0.38391163  0.42752236  0.79252568     0.61900
F907        F  0.34943003  0.33896665  0.67811829    -0.23300
F908        F  0.36475063  0.30283254  0.71109938    -0.20600
F909        F  0.39907528  0.32962612  0.68368080    -0.20300
F910        F  0.35787292  0.43228491  0.80961065    -0.20300
F911        F  0.39109614  0.45399800  0.77675609    -0.20700
F912        F  0.40732193  0.42130954  0.81284449    -0.23300
C913        C  0.15390229  0.13080692  0.75934127    -0.06200
C914        C  0.14741559  0.10257903  0.74529883    -0.00300
C915        C  0.11850033  0.09846921  0.73126758    -0.08800
C916        C  0.09709800  0.12239429  0.73298717    -0.06200
C917        C  0.10327559  0.15015120  0.74804016    -0.00300
C918        C  0.13235283  0.15449429  0.76158833    -0.08700
C919        C  0.14050286  0.18300757  0.77996592     0.61600
H920        H  0.17612461  0.13402286  0.76935578     0.12300
H921        H  0.07506134  0.11956208  0.72235750     0.12400
C922        C  0.11015217  0.06965198  0.71358079     0.61900
F923        F  0.16849461  0.18024068  0.79415446    -0.23300
F924        F  0.11905807  0.18772826  0.80274882    -0.20600
F925        F  0.14185741  0.20830650  0.76089742    -0.20300
F926        F  0.10738945  0.04525755  0.73358807    -0.20300
F927        F  0.13219873  0.06334223  0.69180315    -0.20700
F928        F  0.08273123  0.07270353  0.69831910    -0.23300
C929        C  0.09555812  0.38223995  0.75533397    -0.06200
C930        C  0.10290316  0.35222234  0.74658764    -0.00300
C931        C  0.13355808  0.34579279  0.73781455    -0.08800
C932        C  0.15534474  0.36947147  0.73930002    -0.06200
C933        C  0.14808404  0.39933237  0.74896919    -0.00300
C934        C  0.11726531  0.40583816  0.75701476    -0.08700
C935        C  0.10675677  0.43719023  0.76815426     0.61600
H936        H  0.07228519  0.38716673  0.76125307     0.12300
H937        H  0.17856587  0.36471407  0.73273632     0.12400
C938        C  0.14369409  0.31447123  0.72620331     0.61900
F939        F  0.07681007  0.43708698  0.77773471    -0.23300
F940        F  0.10896929  0.45830684  0.74453531    -0.20600
F941        F  0.12422260  0.44632754  0.79296709    -0.20300
F942        F  0.12503495  0.30505700  0.70240542    -0.20300
F943        F  0.14282144  0.29338515  0.74994071    -0.20700
F944        F  0.17310514  0.31485095  0.71502378    -0.23300
C945        C  0.40712919  0.24409108  0.61742373    -0.06200
C946        C  0.39809372  0.24137132  0.64831009    -0.00300
C947        C  0.36739411  0.23364311  0.65464632    -0.08800
C948        C  0.34616416  0.23570304  0.63064141    -0.06200
C949        C  0.35487676  0.24108503  0.59994099    -0.00300
C950        C  0.38652457  0.24199743  0.59291521    -0.08700
C951        C  0.39939224  0.23869938  0.56042938     0.61600
H952        H  0.43088644  0.24722087  0.61232215     0.12300
H953        H  0.32240139  0.23236524  0.63590942     0.12400
C954        C  0.35697428  0.22087776  0.68549476     0.61900
F955        F  0.43074910  0.23634092  0.56042669    -0.23300
F956        F  0.39192642  0.26363935  0.54246561    -0.20600
F957        F  0.38818522  0.21227782  0.54710905    -0.20300
F958        F  0.35479881  0.24390553  0.70713127    -0.20300
F959        F  0.37720451  0.19881253  0.69552816    -0.20700
F960        F  0.32881563  0.20704785  0.68325612    -0.23300
C961        C  0.12917503  0.23451105  0.65425601    -0.06200
C962        C  0.10146630  0.24872434  0.64671737    -0.00300
C963        C  0.09805353  0.26147126  0.61674934    -0.08800
C964        C  0.12283090  0.26069005  0.59632355    -0.06200
C965        C  0.15062495  0.24681313  0.60393741    -0.00300
C966        C  0.15363213  0.23273487  0.63334653    -0.08700
C967        C  0.18181907  0.21488024  0.64263719     0.61600
H968        H  0.13147592  0.22431554  0.67685760     0.12300
H969        H  0.12055258  0.27106634  0.57381488     0.12400
C970        C  0.06860176  0.27591197  0.60589228     0.61900
F971        F  0.17754869  0.19877872  0.66975527    -0.23300
F972        F  0.20590029  0.23459739  0.64699049    -0.20600
F973        F  0.18906178  0.19393727  0.62000371    -0.20300
F974        F  0.05971218  0.29855066  0.62628161    -0.20300
F975        F  0.04650211  0.25357434  0.60386020    -0.20700
F976        F  0.07130460  0.28917996  0.57706348    -0.23300
C977        C  0.13113592  0.24931663  0.84409153    -0.06200
C978        C  0.10091687  0.25424097  0.85337674    -0.00300
C979        C  0.09517509  0.25990287  0.88526706    -0.08800
C980        C  0.11981731  0.26020662  0.90600146    -0.06200
C981        C  0.14986452  0.25414812  0.89684668    -0.00300
C982        C  0.15561418  0.24850949  0.86496104    -0.08700
C983        C  0.18695179  0.24046935  0.85242270     0.61600
H984        H  0.13557472  0.24530197  0.81994660     0.12300
H985        H  0.11555478  0.26493159  0.93006658     0.12400
C986        C  0.06350747  0.26573155  0.89809018     0.61900
F987        F  0.18644326  0.23417054  0.82119179    -0.23300
F988        F  0.19788404  0.21467499  0.86721277    -0.20600
F989        F  0.20667658  0.26468670  0.85660140    -0.20300
F990        F  0.04559717  0.24010660  0.89398455    -0.20300
F991        F  0.05058360  0.29068364  0.88349102    -0.20700
F992        F  0.06387780  0.27189843  0.92935601    -0.23300
C993        C  0.38169053  0.27567704  0.85628055    -0.06200
C994        C  0.39885803  0.24898973  0.85228733    -0.00300
C995        C  0.39272179  0.22293712  0.87057907    -0.08800
C996        C  0.36958393  0.22471926  0.89292135    -0.06200
C997        C  0.35218029  0.25140692  0.89673054    -0.00300
C998        C  0.35840419  0.27740327  0.87837928    -0.08700
C999        C  0.34083661  0.30696279  0.88241186     0.61600
H1000       H  0.38676041  0.29523015  0.84185465     0.12300
H1001       H  0.36474474  0.20519986  0.90746755     0.12400
C1002       C  0.40999330  0.19327296  0.86572955     0.61900
F1003       F  0.35300324  0.33030543  0.86482541    -0.23300
F1004       F  0.34155867  0.31600859  0.91294574    -0.20600
F1005       F  0.31107407  0.30264368  0.87340953    -0.20300
F1006       F  0.44029299  0.19747772  0.87275323    -0.20300
F1007       F  0.40735427  0.18423378  0.83532941    -0.20700
F1008       F  0.39891625  0.16992857  0.88403825    -0.23300
C1009       C  0.39657528  0.38003423  0.52622955    -0.06200
C1010       C  0.39560518  0.40200580  0.50268515    -0.00300
C1011       C  0.37234096  0.40031633  0.98021016    -0.08800
C1012       C  0.35094717  0.37636474  0.98209655    -0.06200
C1013       C  0.35189392  0.35420144  0.50564566    -0.00300
C1014       C  0.37473417  0.35664081  0.52872019    -0.08700
C1015       C  0.37694312  0.33648781  0.55710455     0.61600
H1016       H  0.41432916  0.38162212  0.54347720     0.12300
H1017       H  0.33322920  0.37459812  0.96489512     0.12400
C1018       C  0.37032165  0.42327119  0.95399727     0.61900
F1019       F  0.37583034  0.35483408  0.08323544    -0.23300
F1020       F  0.40426789  0.32129977  0.05681407    -0.20600
F1021       F  0.35381619  0.31539328  0.55944997    -0.20300
F1022       F  0.39823491  0.42663494  0.93991904    -0.20300
F1023       F  0.36106305  0.45129977  0.46537252    -0.20700
F1024       F  0.34972150  0.41408726  0.43178214    -0.23300
C1025       C  0.37993304  0.15423159  0.47949877    -0.06200
C1026       C  0.35388575  0.14913983  0.49752527    -0.00300
C1027       C  0.35279318  0.12269300  0.01643854    -0.08800
C1028       C  0.37741868  0.10202027  0.01592929    -0.06200
C1029       C  0.40325520  0.10675360  0.49756777    -0.00300
C1030       C  0.40465316  0.13354802  0.47903854    -0.08700
C1031       C  0.43144137  0.13998686  0.45799859     0.61600
H1032       H  0.38062991  0.17465652  0.46540692     0.12300
H1033       H  0.37660325  0.08165325  0.03010284     0.12400
C1034       C  0.32616718  0.11645390  0.03780342     0.61900
F1035       F  0.42659015  0.16553777  0.93977700    -0.23300
F1036       F  0.43617961  0.11526594  0.93850434    -0.20600
F1037       F  0.45721520  0.14521562  0.47532881    -0.20300
F1038       F  0.30085160  0.10878337  0.02066589    -0.20300
F1039       F  0.31986558  0.14199769  0.55538888    -0.20700
F1040       F  0.33200067  0.09242856  0.55772473    -0.23300
C1041       C  0.12580186  0.40138691  0.51872068    -0.06200
C1042       C  0.09849512  0.39443985  0.50354867    -0.00300
C1043       C  0.09551348  0.36547362  0.98916526    -0.08800
C1044       C  0.12049775  0.34517591  0.98954040    -0.06200
C1045       C  0.14819422  0.35241148  0.50399017    -0.00300
C1046       C  0.15061148  0.38102263  0.51948633    -0.08700
C1047       C  0.17886567  0.39046319  0.53712789     0.61600
H1048       H  0.12766606  0.42337300  0.53005794     0.12300
H1049       H  0.11861423  0.32328215  0.97804398     0.12400
C1050       C  0.06654485  0.35600359  0.97273921     0.61900
F1051       F  0.17398237  0.41645147  0.05485750    -0.23300
F1052       F  0.20201014  0.39685011  0.01663006    -0.20600
F1053       F  0.18777303  0.36730512  0.55677635    -0.20300
F1054       F  0.05886623  0.37761674  0.95080739    -0.20300
F1055       F  0.04326570  0.35310906  0.49356109    -0.20700
F1056       F  0.06980246  0.32823699  0.45761852    -0.23300
C1057       C  0.10050363  0.12678649  0.51580703    -0.06200
C1058       C  0.10641222  0.09912832  0.50032461    -0.00300
C1059       C  0.13479137  0.09562941  0.98494338    -0.08800
C1060       C  0.15566780  0.12014410  0.98533728    -0.06200
C1061       C  0.14955356  0.14792516  0.50056569    -0.00300
C1062       C  0.12153006  0.15109935  0.51659688    -0.08700
C1063       C  0.11378575  0.17951307  0.53529200     0.61600
H1064       H  0.07898054  0.12921375  0.52759241     0.12300
H1065       H  0.17712887  0.11779315  0.97343534     0.12400
C1066       C  0.14300196  0.06657732  0.96753251     0.61900
F1067       F  0.08823809  0.17528778  0.55334330    -0.23300
F1068       F  0.10821210  0.20388686  0.01589898    -0.20600
F1069       F  0.13752205  0.18665383  0.55480474    -0.20300
F1070       F  0.12060313  0.05985601  0.94628404    -0.20300
F1071       F  0.14606415  0.04243164  0.48796606    -0.20700
F1072       F  0.17012978  0.06942912  0.95170766    -0.23300
C1073       C  0.37039972  0.01011884  0.90651473    -0.06200
C1074       C  0.40029462  0.00359492  0.89700761    -0.00300
C1075       C  0.40591341  0.49892811  0.86454710    -0.08800
C1076       C  0.38127309  0.50011041  0.84405760    -0.06200
C1077       C  0.35112907  0.00464733  0.85422679    -0.00300
C1078       C  0.34566108  0.01052444  0.88603081    -0.08700
C1079       C  0.31421563  0.01736252  0.89893299     0.61600
H1080       H  0.36629840  0.01482059  0.93060622     0.12300
H1081       H  0.38545277  0.49623228  0.81986525     0.12400
C1082       C  0.43716393  0.49138322  0.85146561     0.61900
F1083       F  0.31496148  0.02450645  0.92999613    -0.23300
F1084       F  0.29579385  0.49241389  0.89498368    -0.20600
F1085       F  0.30163177  0.04212285  0.88373030    -0.20300
F1086       F  0.44859363  0.46544696  0.86560465    -0.20300
F1087       F  0.45640179  0.01394983  0.85583696    -0.20700
F1088       F  0.43634069  0.48558746  0.82011904    -0.23300
C1089       C  0.09978000  0.01623144  0.87427707    -0.06200
C1090       C  0.10331936  0.99604877  0.89914551    -0.00300
C1091       C  0.12948378  0.47604567  0.90061048    -0.08800
C1092       C  0.15150429  0.47878142  0.87721698    -0.06200
C1093       C  0.14803813  0.00001502  0.85243363    -0.00300
C1094       C  0.12158971  0.01858640  0.85074788    -0.08700
C1095       C  0.11632252  0.04120014  0.82465589     0.61600
H1096       H  0.07961850  0.03042164  0.87353716     0.12300
H1097       H  0.17160340  0.46448276  0.87777593     0.12400
C1098       C  0.13365784  0.45205558  0.92564109     0.61900
F1099       F  0.09151342  0.05989862  0.83018844    -0.23300
F1100       F  0.11136526  0.52550266  0.79794040    -0.20600
F1101       F  0.14138442  0.05979066  0.82106435    -0.20300
F1102       F  0.10771641  0.43445372  0.92818006    -0.20300
F1103       F  0.13841748  0.96742746  0.95387940    -0.20700
F1104       F  0.15765330  0.43255601  0.91923890    -0.23300
C1105       C  0.12083444  0.98878161  0.65656989    -0.06200
C1106       C  0.15056195  0.99605722  0.64735883    -0.00300
C1107       C  0.15604077  0.50259237  0.61566340    -0.08800
C1108       C  0.13136692  0.50310545  0.59513021    -0.06200
C1109       C  0.10177911  0.99501203  0.60425046    -0.00300
C1110       C  0.09647376  0.98734647  0.63571318    -0.08700
C1111       C  0.06593379  0.97625772  0.64757895     0.61600
H1112       H  0.11669643  0.98376818  0.68060133     0.12300
H1113       H  0.13552225  0.50848488  0.57119645     0.12400
C1114       C  0.18784925  0.50714830  0.60267257     0.61900
F1115       F  0.06730137  0.46688585  0.67766037    -0.23300
F1116       F  0.05661039  0.45243579  0.62954635    -0.20600
F1117       F  0.04479581  0.99958095  0.64644601    -0.20300
F1118       F  0.20509260  0.48112767  0.60772645    -0.20300
F1119       F  0.20082009  0.03210373  0.61637631    -0.20700
F1120       F  0.18781253  0.01191250  0.57117789    -0.23300
C1121       C  0.36953575  0.51127380  0.59450865    -0.06200
C1122       C  0.40071129  0.01055541  0.60405281    -0.00300
C1123       C  0.40713706  0.01416243  0.63610687    -0.08800
C1124       C  0.38308203  0.01114419  0.65732984    -0.06200
C1125       C  0.35249439  0.00954991  0.64800808    -0.00300
C1126       C  0.34555459  0.51335699  0.61580938    -0.08700
C1127       C  0.31425892  0.52215556  0.60372762     0.61600
H1128       H  0.36421377  0.51076305  0.57019085     0.12300
H1129       H  0.38815993  0.01120763  0.68170257     0.12400
C1130       C  0.43802023  0.02434357  0.64830831     0.61900
F1131       F  0.31577439  0.02945441  0.57281884    -0.23300
F1132       F  0.30335809  0.04594062  0.61971873    -0.20600
F1133       F  0.29434203  0.49797230  0.60588708    -0.20300
F1134       F  0.44664033  0.05100152  0.63357861    -0.20300
F1135       F  0.45951948  0.50342847  0.64343307    -0.20700
F1136       F  0.43682143  0.53159627  0.67893373    -0.23300
C1137       C  0.01653169  0.15018571  0.87501365    -0.06200
C1138       C  0.99851363  0.14574106  0.84885658    -0.00300
C1139       C  0.48183571  0.11846179  0.84615596    -0.08800
C1140       C  0.48375132  0.09646791  0.86984481    -0.06200
C1141       C  0.00210254  0.10047324  0.89540683    -0.00300
C1142       C  0.01949446  0.12772981  0.89790019    -0.08700
C1143       C  0.04264575  0.13264290  0.92339102     0.61600
H1144       H  0.02921515  0.17130097  0.87692614     0.12300
H1145       H  0.47050213  0.07568632  0.86836311     0.12400
C1146       C  0.46177274  0.11215977  0.81831722     0.61900
F1147       F  0.06093573  0.15773353  0.91764629    -0.23300
F1148       F  0.06129792  0.10724521  0.92564756    -0.20600
F1149       F  0.02815069  0.13764056  0.95116096    -0.20300
F1150       F  0.47958500  0.10770866  0.79247576    -0.20300
F1151       F  0.44233629  0.13651813  0.81336548    -0.20700
F1152       F  0.44426977  0.08618752  0.82222174    -0.23300
C1153       C  0.01832419  0.39844495  0.87611970    -0.06200
C1154       C  0.99818869  0.39477843  0.90088462    -0.00300
C1155       C  0.48029613  0.36778952  0.90223349    -0.08800
C1156       C  0.48161941  0.34688818  0.87763101    -0.06200
C1157       C  0.00097267  0.35109707  0.85282532    -0.00300
C1158       C  0.02069093  0.37664543  0.85246354    -0.08700
C1159       C  0.04466480  0.38068628  0.82774802     0.61600
H1160       H  0.03269406  0.41852047  0.87565290     0.12300
H1161       H  0.46781446  0.32642276  0.87811465     0.12400
C1162       C  0.46018005  0.36026345  0.92966154     0.61900
F1163       F  0.06552972  0.40300553  0.83563500    -0.23300
F1164       F  0.03085725  0.38924658  0.80051954    -0.20600
F1165       F  0.06044530  0.35360574  0.82346006    -0.20300
F1166       F  0.44014669  0.38394465  0.93502605    -0.20300
F1167       F  0.47784900  0.35550962  0.95552157    -0.20700
F1168       F  0.44330700  0.33395981  0.92487362    -0.23300
C1169       C  0.98474527  0.36862630  0.59305693    -0.06200
C1170       C  0.98593759  0.39924761  0.60302525    -0.00300
C1171       C  0.48171471  0.40539645  0.63449114    -0.08800
C1172       C  0.48432682  0.38120285  0.65547845    -0.06200
C1173       C  0.98646078  0.35031685  0.64588407    -0.00300
C1174       C  0.98296567  0.34408454  0.61381993    -0.08700
C1175       C  0.97597875  0.31249582  0.60099378     0.61600
H1176       H  0.98508899  0.36372369  0.56863303     0.12300
H1177       H  0.48451265  0.38640913  0.67984575     0.12400
C1178       C  0.47247744  0.43647878  0.64650038     0.61900
F1179       F  0.50006847  0.29415806  0.60239323    -0.23300
F1180       F  0.45172941  0.29975716  0.61885589    -0.20600
F1181       F  0.96708229  0.31363269  0.57040784    -0.20300
F1182       F  0.44917082  0.44778163  0.62840135    -0.20300
F1183       F  0.99667151  0.45574313  0.64677207    -0.20700
F1184       F  0.96147712  0.43435680  0.67692862    -0.23300
C1185       C  0.02905415  0.12979701  0.64459155    -0.06200
C1186       C  0.00520675  0.15115243  0.64424356    -0.00300
C1187       C  0.48108898  0.14932912  0.62075837    -0.08800
C1188       C  0.48230114  0.12513064  0.59950687    -0.06200
C1189       C  0.00803843  0.10441201  0.59974057    -0.00300
C1190       C  0.03144193  0.10694198  0.62187942    -0.08700
C1191       C  0.05901276  0.08614624  0.62104247     0.61600
H1192       H  0.04601123  0.13137580  0.66259762     0.12300
H1193       H  0.46496690  0.12292825  0.58195518     0.12400
C1194       C  0.45658553  0.17361812  0.61738304     0.61900
F1195       F  0.08200596  0.09685443  0.63986281    -0.23300
F1196       F  0.07038397  0.08430642  0.59137865    -0.20600
F1197       F  0.05090439  0.05732093  0.63086799    -0.20300
F1198       F  0.46988420  0.20133247  0.61026896    -0.20300
F1199       F  0.44033322  0.17643287  0.64443758    -0.20700
F1200       F  0.43634837  0.16669340  0.59400951    -0.23300
O1201       O  0.00347860  0.55150181  0.08650065    -0.86900
O1202       O  0.00173704  0.54782718  0.41114225    -0.87100
O1203       O  0.05336656  0.58519561  0.99858604    -0.88700
O1204       O  0.45440940  0.58953846  0.99752651    -0.87500
O1205       O  0.41640231  0.55380094  0.99811004    -0.87100
O1206       O  0.08886305  0.54688407  0.00112595    -0.88400
O1207       O  0.00190243  0.58540695  0.44798688    -0.86900
O1208       O  0.00354878  0.58788842  0.04826663    -0.86500
Zr1209     Zr  0.00266312  0.56191843  0.99880578     2.84300
O1210       O  0.47169371  0.53151756  0.46805909    -1.08500
O1211       O  0.03210107  0.53073135  0.03109496    -1.09200
C1212       C  0.00407876  0.57939556  0.07672208     1.06200
C1213       C  0.00193009  0.57617580  0.41976520     1.06200
C1214       C  0.08114418  0.57543065  0.99960440     1.09100
C1215       C  0.42606244  0.58171822  0.99741561     1.06900
H1216       H  0.04595625  0.54129074  0.45574845     0.32500
O1217       O  0.03279264  0.52929028  0.46874311    -1.29400
H1218       H  0.45949890  0.54677343  0.04260338     0.32200
O1219       O  0.47151552  0.53305630  0.03015151    -1.31100
O1220       O  0.99919705  0.94731161  0.41515518    -0.86900
O1221       O  0.99484803  0.95250204  0.08825754    -0.88400
O1222       O  0.08783857  0.49547668  0.45178075    -0.87000
O1223       O  0.41550693  0.50349258  0.44926760    -0.87000
O1224       O  0.41493689  0.50701564  0.05048323    -0.86700
O1225       O  0.08608028  0.49659866  0.05169459    -0.86500
O1226       O  0.04641571  0.91158482  0.00318900    -0.86900
O1227       O  0.44768866  0.91545292  0.00202904    -0.86400
O1228       O  0.08448692  0.94710504  0.00086259    -0.87400
O1229       O  0.41240999  0.95418778  0.00172455    -0.86600
O1230       O  0.05149762  0.49625163  0.41394718    -0.87000
O1231       O  0.04923437  0.49904943  0.08854228    -0.86700
O1232       O  0.45180815  0.50618077  0.08731407    -0.86400
O1233       O  0.45245285  0.50192640  0.41249750    -0.86800
O1234       O  0.99601092  0.91137310  0.45340246    -0.87100
O1235       O  0.99207316  0.91528806  0.05154941    -0.88400
Zr1236     Zr  0.00127291  0.49865377  0.43816733     2.83100
Zr1237     Zr  0.00031058  0.50126413  0.06236329     2.83500
Zr1238     Zr  0.06177698  0.49780570  0.00119177     2.84100
Zr1239     Zr  0.43945721  0.50293145  0.99983171     2.83400
Zr1240     Zr  0.99768792  0.93901124  0.00171646     2.84200
O1241       O  0.46914829  0.97121895  0.03150543    -1.09000
O1242       O  0.03038617  0.96740711  0.47027074    -1.08500
C1243       C  0.99711736  0.91932073  0.42489475     1.06200
C1244       C  0.99145832  0.92439195  0.07976947     1.08800
C1245       C  0.07938477  0.49524005  0.42333953     1.06400
C1246       C  0.42444782  0.50310839  0.42089291     1.06700
C1247       C  0.42388142  0.50809923  0.07892235     1.06300
C1248       C  0.07723152  0.49728715  0.08010052     1.05900
C1249       C  0.07475032  0.91926277  0.00214194     1.06300
C1250       C  0.42009561  0.92557706  0.00215237     1.05800
H1251       H  0.04175607  0.95529761  0.04568848     0.32500
O1252       O  0.03003034  0.96858258  0.03246434    -1.30100
H1253       H  0.45585688  0.95795645  0.45671933     0.32500
O1254       O  0.46908340  0.97023494  0.46931248    -1.31400
O1255       O  0.00131859  0.70217568  0.16088011    -0.86900
O1256       O  0.99893386  0.69792315  0.33517598    -0.87100
O1257       O  0.05065216  0.66387189  0.24795585    -0.88700
O1258       O  0.45084586  0.66328564  0.24663572    -0.87500
O1259       O  0.41442106  0.70072533  0.24935923    -0.87100
O1260       O  0.08630010  0.70182434  0.24786122    -0.88400
O1261       O  0.99954280  0.66173400  0.29695800    -0.86900
O1262       O  0.00235617  0.66409913  0.19716558    -0.86500
Zr1263     Zr  0.00054590  0.68818776  0.24814088     2.84300
O1264       O  0.46963799  0.71900569  0.27948880    -1.08500
O1265       O  0.03084525  0.71989356  0.21792305    -1.09200
C1266       C  0.00211869  0.67389367  0.16904303     1.06200
C1267       C  0.99870832  0.66990414  0.32540575     1.06200
C1268       C  0.07842701  0.67347860  0.24779919     1.09100
C1269       C  0.42295207  0.67244097  0.24747575     1.06900
H1270       H  0.04378589  0.70597447  0.29289259     0.32500
O1271       O  0.03090673  0.71874440  0.28020554    -1.29400
H1272       H  0.45646717  0.70655838  0.20536921     0.32200
O1273       O  0.46892603  0.71955843  0.21802107    -1.31100
O1274       O  0.99974754  0.79842904  0.33770842    -0.86900
O1275       O  0.99438409  0.79917753  0.16192713    -0.88400
O1276       O  0.08553377  0.75213813  0.30017353    -0.87000
O1277       O  0.41374451  0.75081230  0.29982452    -0.87000
O1278       O  0.41261749  0.74865155  0.20068156    -0.86700
O1279       O  0.08582868  0.75044001  0.19937285    -0.86500
O1280       O  0.04932335  0.83794737  0.24746469    -0.86900
O1281       O  0.45062007  0.83840523  0.24825752    -0.86400
O1282       O  0.08551218  0.80055960  0.24945601    -0.87400
O1283       O  0.41384053  0.80132735  0.24726413    -0.86600
O1284       O  0.04889221  0.75007173  0.33715394    -0.87000
O1285       O  0.04896473  0.75031731  0.16225937    -0.86700
O1286       O  0.44916658  0.74552781  0.16354262    -0.86400
O1287       O  0.45088422  0.74874809  0.33688636    -0.86000
O1288       O  0.00064397  0.83612700  0.30088674    -0.87100
O1289       O  0.99377986  0.83603521  0.19914410    -0.88400
Zr1290     Zr  0.99973725  0.74893978  0.31165237     2.83100
Zr1291     Zr  0.99935637  0.75058862  0.18781168     2.83500
Zr1292     Zr  0.06071890  0.75097215  0.24956169     2.84100
Zr1293     Zr  0.43868483  0.75087400  0.24965072     2.83400
Zr1294     Zr  0.99931431  0.81241479  0.24997481     2.84200
O1295       O  0.46898436  0.78145030  0.21809944    -1.09000
O1296       O  0.02976213  0.78102317  0.28098736    -1.08500
C1297       C  0.00057661  0.82674495  0.32911196     1.06200
C1298       C  0.99207559  0.82714873  0.17071904     1.08800
C1299       C  0.07685189  0.75169441  0.32870302     1.06400
C1300       C  0.42287318  0.74947317  0.32805979     1.06700
C1301       C  0.42118547  0.74534585  0.17256017     1.06300
C1302       C  0.07703271  0.75025085  0.17094447     1.05900
C1303       C  0.07742411  0.82882541  0.24788584     1.06300
C1304       C  0.42260527  0.82959912  0.24706139     1.05800
H1305       H  0.04232998  0.79478930  0.20522712     0.32500
O1306       O  0.03009338  0.78203999  0.21831179    -1.30100
H1307       H  0.45697564  0.79447360  0.29333338     0.32500
O1308       O  0.46953538  0.78172634  0.28039249    -1.31400
O1309       O  0.33708939  0.00611001  0.20092905    -0.86900
O1310       O  0.16508554  0.99964317  0.20008614    -0.87100
O1311       O  0.25465273  0.94943563  0.16465493    -0.88700
O1312       O  0.24952561  0.55023817  0.16329190    -0.87500
O1313       O  0.24949174  0.58802939  0.20013164    -0.87100
O1314       O  0.25194156  0.91272300  0.20241969    -0.88400
O1315       O  0.20238386  0.99746002  0.16378426    -0.86900
O1316       O  0.30071677  0.00306564  0.16370404    -0.86500
Zr1317     Zr  0.25147691  0.00021319  0.18892561     2.84300
O1318       O  0.21992088  0.53155830  0.21909831    -1.08500
O1319       O  0.28207195  0.97013550  0.22071220    -1.09200
C1320       C  0.32850814  0.00604428  0.17237242     1.06200
C1321       C  0.17430266  0.99796169  0.17188805     1.06200
C1322       C  0.25392344  0.92132085  0.17407054     1.09100
C1323       C  0.24970525  0.57858075  0.17196850     1.06900
H1324       H  0.20839915  0.95640143  0.20711262     0.32500
O1325       O  0.22069428  0.96947857  0.21994109    -1.29400
H1326       H  0.29280475  0.54582060  0.20682499     0.32200
O1327       O  0.28050470  0.53280923  0.21969392    -1.31100
O1328       O  0.16417234  0.00080732  0.30018197    -0.86900
O1329       O  0.33586136  0.00491162  0.30152918    -0.88400
O1330       O  0.20052172  0.91406378  0.25151538    -0.87000
O1331       O  0.19936537  0.58785100  0.24668801    -0.87000
O1332       O  0.29787542  0.59018435  0.24993059    -0.86700
O1333       O  0.30181071  0.91517826  0.25006981    -0.86500
O1334       O  0.24969009  0.95183607  0.33872000    -0.86900
O1335       O  0.24881181  0.55159862  0.33856934    -0.86400
O1336       O  0.25098890  0.91403835  0.30188401    -0.87400
O1337       O  0.24828185  0.58848210  0.30078538    -0.86600
O1338       O  0.16448498  0.95160974  0.24941700    -0.87000
O1339       O  0.33761650  0.95327939  0.24974803    -0.86700
O1340       O  0.33539439  0.55382613  0.25021115    -0.86400
O1341       O  0.16335251  0.55026854  0.24719216    -0.86800
O1342       O  0.20016472  0.00080697  0.33826350    -0.87100
O1343       O  0.29897603  0.00271088  0.33831141    -0.88400
Zr1344     Zr  0.18955236  0.00092217  0.25023218     2.83100
Zr1345     Zr  0.31170950  0.00273326  0.25115999     2.83500
Zr1346     Zr  0.25111652  0.93900039  0.25171504     2.84100
Zr1347     Zr  0.24919128  0.56350028  0.25042862     2.83400
Zr1348     Zr  0.24970019  0.00159011  0.31298795     2.84200
O1349       O  0.28014888  0.53331701  0.28201902    -1.09000
O1350       O  0.21963156  0.97002715  0.28208161    -1.08500
C1351       C  0.17236709  0.00081266  0.32871956     1.06200
C1352       C  0.32696288  0.00426953  0.32989985     1.08800
C1353       C  0.17244641  0.92329890  0.25045265     1.06400
C1354       C  0.17151342  0.57858361  0.24578680     1.06700
C1355       C  0.32603785  0.58195916  0.24983669     1.06300
C1356       C  0.32962158  0.92484562  0.24964996     1.05900
C1357       C  0.25030504  0.92356262  0.33002726     1.06300
C1358       C  0.24831391  0.57961364  0.32917946     1.05800
H1359       H  0.29431413  0.95862576  0.29535779     0.32500
O1360       O  0.28144491  0.97100911  0.28239133    -1.30100
H1361       H  0.20552476  0.54539587  0.29430833     0.32500
O1362       O  0.21866210  0.53274282  0.28182401    -1.31400
O1363       O  0.20119715  0.66353304  0.49834776    -0.86900
O1364       O  0.20102416  0.83811173  0.50334308    -0.87100
O1365       O  0.16598464  0.74856061  0.05157011    -0.88700
O1366       O  0.16523112  0.75284121  0.44978908    -0.87500
O1367       O  0.20212254  0.75408112  0.41297384    -0.87100
O1368       O  0.20281230  0.74733942  0.08878102    -0.88400
O1369       O  0.16462979  0.80077953  0.50237503    -0.86900
O1370       O  0.16455024  0.70072606  0.49924182    -0.86500
Zr1371     Zr  0.18973633  0.75074380  0.50055007     2.84300
O1372       O  0.22055366  0.78255290  0.47054797    -1.08500
O1373       O  0.22054258  0.71886063  0.03059179    -1.09200
C1374       C  0.17310771  0.67239067  0.49904415     1.06200
C1375       C  0.17304378  0.82914851  0.50330076     1.06200
C1376       C  0.17481729  0.74746477  0.08003172     1.09100
C1377       C  0.17410453  0.75372400  0.42131706     1.06900
H1378       H  0.20796737  0.79289604  0.04602234     0.32500
O1379       O  0.22053942  0.78068325  0.03263525    -1.29400
H1380       H  0.20766540  0.70853557  0.45491784     0.32200
O1381       O  0.22033475  0.72086593  0.46813628    -1.31100
O1382       O  0.30039948  0.83835685  0.50417860    -0.86900
O1383       O  0.30098161  0.66409008  0.49756311    -0.88400
O1384       O  0.25183252  0.79743746  0.08982785    -0.87000
O1385       O  0.24973538  0.80341364  0.41460430    -0.87000
O1386       O  0.25149616  0.70363568  0.41127559    -0.86700
O1387       O  0.25090178  0.69783724  0.08581551    -0.86500
O1388       O  0.33751591  0.74648290  0.04854908    -0.86900
O1389       O  0.33779726  0.75130697  0.44926362    -0.86400
O1390       O  0.30177653  0.74514797  0.08648190    -0.87400
O1391       O  0.30070254  0.75279288  0.41216127    -0.86600
O1392       O  0.25170756  0.83594570  0.05381630    -0.87000
O1393       O  0.25025167  0.66187950  0.04728904    -0.86700
O1394       O  0.25138017  0.66544741  0.44770788    -0.86400
O1395       O  0.24925045  0.83960240  0.45310222    -0.86800
O1396       O  0.33762024  0.80146503  0.50312571    -0.87100
O1397       O  0.33770553  0.70119652  0.49732456    -0.88400
Zr1398     Zr  0.25092530  0.81289860  0.50252821     2.83100
Zr1399     Zr  0.25099671  0.68895287  0.49829290     2.83500
Zr1400     Zr  0.25170440  0.74864208  0.06235241     2.84100
Zr1401     Zr  0.25130672  0.75281175  0.43816870     2.83400
Zr1402     Zr  0.31252958  0.75118256  0.49935021     2.84200
O1403       O  0.28181845  0.72069095  0.46795844    -1.09000
O1404       O  0.28213198  0.78088899  0.03219983    -1.08500
C1405       C  0.32849085  0.82966600  0.50465355     1.06200
C1406       C  0.32899133  0.67293258  0.49748791     1.08800
C1407       C  0.25171234  0.82590402  0.08183101     1.06400
C1408       C  0.24894472  0.83125771  0.42454122     1.06700
C1409       C  0.25159732  0.67528625  0.41973101     1.06300
C1410       C  0.25015447  0.66996233  0.07587086     1.05900
C1411       C  0.32959175  0.74422638  0.07690184     1.06300
C1412       C  0.32872965  0.75200827  0.42097638     1.05800
H1413       H  0.29461208  0.70557690  0.04182774     0.32500
O1414       O  0.28205386  0.71900313  0.02967407    -1.30100
H1415       H  0.29446836  0.79675629  0.45717663     0.32500
O1416       O  0.28187506  0.78350353  0.46969142    -1.31400
C1417       C  0.22723263  0.60204097  0.12546870    -0.06200
C1418       C  0.25040474  0.60213788  0.14756745    -0.00300
C1419       C  0.27408981  0.62390467  0.14542180    -0.08800
C1420       C  0.27311337  0.64560490  0.12151841    -0.06200
C1421       C  0.24992056  0.64547462  0.09935427    -0.00300
C1422       C  0.22686028  0.62291894  0.10081245    -0.08700
C1423       C  0.20180822  0.62094381  0.07680366     0.61600
H1424       H  0.20916543  0.58558268  0.12792613     0.12300
H1425       H  0.29063751  0.66287694  0.11983065     0.12400
C1426       C  0.30043759  0.62401068  0.16800167     0.61900
F1427       F  0.18089113  0.59839311  0.08381722    -0.23300
F1428       F  0.21414906  0.61403808  0.04837826    -0.20600
F1429       F  0.18649652  0.64847393  0.07493137    -0.20300
F1430       F  0.31309624  0.59507756  0.16989776    -0.20300
F1431       F  0.29028176  0.63286420  0.19676938    -0.20700
F1432       F  0.32306368  0.64405846  0.15907690    -0.23300
C1433       C  0.27697804  0.86919621  0.10770434    -0.06200
C1434       C  0.25220470  0.84911691  0.10662301    -0.00300
C1435       C  0.22856725  0.85200463  0.12859317    -0.08800
C1436       C  0.22994258  0.87614008  0.15006808    -0.06200
C1437       C  0.25438726  0.89669620  0.15064649    -0.00300
C1438       C  0.27897508  0.89240902  0.13009034    -0.08700
C1439       C  0.30773616  0.91122158  0.13276336     0.61600
H1440       H  0.29509836  0.86614216  0.09111110     0.12300
H1441       H  0.21186456  0.87919359  0.16670505     0.12400
C1442       C  0.20194973  0.82994943  0.12926026     0.61900
F1443       F  0.33014599  0.90100476  0.11289304    -0.23300
F1444       F  0.31890333  0.90943529  0.16247004    -0.20600
F1445       F  0.30160547  0.94133810  0.12583784    -0.20300
F1446       F  0.21209671  0.80097994  0.13683453    -0.20300
F1447       F  0.18804623  0.82895859  0.10075732    -0.20700
F1448       F  0.18034539  0.83850781  0.15077005    -0.23300
C1449       C  0.22244241  0.88925789  0.36525403    -0.06200
C1450       C  0.25035945  0.90014263  0.35438680    -0.00300
C1451       C  0.27773630  0.88880115  0.36695115    -0.08800
C1452       C  0.27631846  0.86667672  0.39039423    -0.06200
C1453       C  0.24845112  0.85554397  0.40107702    -0.00300
C1454       C  0.22101077  0.86689833  0.38854864    -0.08700
C1455       C  0.19052473  0.85545117  0.39991455     0.61600
H1456       H  0.20180279  0.89841626  0.35528910     0.12300
H1457       H  0.29697132  0.85776475  0.40049479     0.12400
C1458       C  0.30814902  0.90009271  0.35534189     0.61900
F1459       F  0.16662209  0.86939463  0.38466607    -0.23300
F1460       F  0.18761936  0.86154684  0.43103416    -0.20600
F1461       F  0.18842156  0.82424762  0.39519367    -0.20300
F1462       F  0.31031758  0.93130932  0.35990204    -0.20300
F1463       F  0.31078678  0.89374197  0.32424232    -0.20700
F1464       F  0.33212056  0.88631346  0.37051193    -0.23300
C1465       C  0.27642490  0.61331092  0.36440071    -0.06200
C1466       C  0.24836933  0.60369720  0.35281815    -0.00300
C1467       C  0.22129347  0.61777226  0.36313163    -0.08800
C1468       C  0.22328728  0.64187553  0.38446428    -0.06200
C1469       C  0.25141865  0.65180709  0.39559958    -0.00300
C1470       C  0.27846267  0.63752824  0.38555510    -0.08700
C1471       C  0.30920399  0.64817291  0.39696638     0.61600
H1472       H  0.29674403  0.60166302  0.35671225     0.12300
H1473       H  0.20289272  0.65278716  0.39309972     0.12400
C1474       C  0.19057146  0.60652434  0.35242286     0.61900
F1475       F  0.33273310  0.63187380  0.38358313    -0.23300
F1476       F  0.31103209  0.64446672  0.42852847    -0.20600
F1477       F  0.31295889  0.67874636  0.38981044    -0.20300
F1478       F  0.18684663  0.57644955  0.36150923    -0.20300
F1479       F  0.18877459  0.60825960  0.32072125    -0.20700
F1480       F  0.16704785  0.62367540  0.36470299    -0.23300
C1481       C  0.37205988  0.65506231  0.26382533    -0.06200
C1482       C  0.39843126  0.64899349  0.24674054    -0.00300
C1483       C  0.39997968  0.62170191  0.22901209    -0.08800
C1484       C  0.37564966  0.60084039  0.23048569    -0.06200
C1485       C  0.34968787  0.60642440  0.24847359    -0.00300
C1486       C  0.34762955  0.63442700  0.26506586    -0.08700
C1487       C  0.32050867  0.64230703  0.28510000     0.61600
H1488       H  0.37089294  0.67621665  0.27675697     0.12300
H1489       H  0.37681727  0.57968044  0.21754007     0.12400
C1490       C  0.42676833  0.61449555  0.20821939     0.61900
F1491       F  0.32542131  0.66830402  0.30266413    -0.23300
F1492       F  0.31478567  0.61842668  0.30502158    -0.20600
F1493       F  0.29534278  0.64757282  0.26684153    -0.20300
F1494       F  0.45159790  0.60640729  0.22590600    -0.20300
F1495       F  0.43386862  0.63962932  0.19036235    -0.20700
F1496       F  0.42047457  0.59055951  0.18839984    -0.23300
C1497       C  0.35194316  0.87735096  0.22740996    -0.06200
C1498       C  0.35431078  0.90138966  0.24874434    -0.00300
C1499       C  0.37990691  0.90233363  0.26863338    -0.08800
C1500       C  0.40144972  0.87842310  0.26728203    -0.06200
C1501       C  0.39879669  0.85405358  0.24636318    -0.00300
C1502       C  0.37417430  0.85413488  0.22521966    -0.08700
C1503       C  0.37168593  0.83038246  0.19988902     0.61600
H1504       H  0.33254003  0.87706765  0.21212622     0.12300
H1505       H  0.42070984  0.87852344  0.28276799     0.12400
C1506       C  0.38451244  0.92825292  0.29144726     0.61900
F1507       F  0.34892647  0.83741395  0.17904538    -0.23300
F1508       F  0.36511123  0.80237270  0.21273443    -0.20600
F1509       F  0.39874238  0.82849784  0.18381598    -0.20300
F1510       F  0.35875654  0.93218058  0.30918155    -0.20300
F1511       F  0.39064867  0.95498410  0.27565078    -0.20700
F1512       F  0.40855146  0.92260777  0.31116381    -0.23300
C1513       C  0.15352123  0.63071907  0.25897990    -0.06200
C1514       C  0.14734911  0.60265373  0.24445243    -0.00300
C1515       C  0.11874052  0.59868613  0.22973768    -0.08800
C1516       C  0.09723665  0.62253777  0.23137595    -0.06200
C1517       C  0.10308646  0.65009606  0.24691527    -0.00300
C1518       C  0.13190427  0.65435417  0.26104751    -0.08700
C1519       C  0.13964871  0.68276080  0.27980249     0.61600
H1520       H  0.17552477  0.63383931  0.26951467     0.12300
H1521       H  0.07540108  0.61983697  0.22028768     0.12400
C1522       C  0.11091306  0.57017398  0.21131323     0.61900
F1523       F  0.16732603  0.67998122  0.29462374    -0.23300
F1524       F  0.11770162  0.68734987  0.30211791    -0.20600
F1525       F  0.14138172  0.70815843  0.26089873    -0.20300
F1526       F  0.10833408  0.54524358  0.23066409    -0.20300
F1527       F  0.13321211  0.56472972  0.18956517    -0.20700
F1528       F  0.08355523  0.57320358  0.19593366    -0.23300
C1529       C  0.09488166  0.88252778  0.25597742    -0.06200
C1530       C  0.10229060  0.85251863  0.24718457    -0.00300
C1531       C  0.13297341  0.84620039  0.23847592    -0.08800
C1532       C  0.15471946  0.86990051  0.24010015    -0.06200
C1533       C  0.14741339  0.89975605  0.24971561    -0.00300
C1534       C  0.11655737  0.90618252  0.25776544    -0.08700
C1535       C  0.10591463  0.93751354  0.26886041     0.61600
H1536       H  0.07157189  0.88743310  0.26175453     0.12300
H1537       H  0.17795308  0.86518119  0.23357103     0.12400
C1538       C  0.14317095  0.81499742  0.22664347     0.61900
F1539       F  0.07608800  0.93717729  0.27885092    -0.23300
F1540       F  0.10767000  0.95847907  0.24506958    -0.20600
F1541       F  0.12357267  0.94701683  0.29338601    -0.20300
F1542       F  0.12465736  0.80584460  0.20262323    -0.20300
F1543       F  0.14213959  0.79368729  0.25016735    -0.20700
F1544       F  0.17265391  0.81547220  0.21566901    -0.23300
C1545       C  0.40640423  0.74331533  0.11758399    -0.06200
C1546       C  0.39742282  0.74114897  0.14853370    -0.00300
C1547       C  0.36669982  0.73364001  0.15508733    -0.08800
C1548       C  0.34542899  0.73541716  0.13108779    -0.06200
C1549       C  0.35412245  0.74047400  0.10031853    -0.00300
C1550       C  0.38573050  0.74102407  0.09318845    -0.08700
C1551       C  0.39844050  0.73753756  0.06066811     0.61600
H1552       H  0.43014199  0.74637955  0.11233059     0.12300
H1553       H  0.32165505  0.73226826  0.13642586     0.12400
C1554       C  0.35629160  0.72145757  0.18618976     0.61900
F1555       F  0.42970527  0.73420431  0.06060648    -0.23300
F1556       F  0.39167128  0.76286311  0.04298040    -0.20600
F1557       F  0.38644185  0.71160012  0.04709671    -0.20300
F1558       F  0.35464355  0.74474517  0.20756072    -0.20300
F1559       F  0.37625090  0.69921431  0.19634467    -0.20700
F1560       F  0.32788688  0.70809277  0.18439407    -0.23300
C1561       C  0.12833042  0.73355493  0.15369830    -0.06200
C1562       C  0.10135901  0.74942162  0.14681512    -0.00300
C1563       C  0.09888964  0.76428249  0.11779256    -0.08800
C1564       C  0.12365240  0.76333964  0.09735900    -0.06200
C1565       C  0.15056505  0.74747778  0.10415874    -0.00300
C1566       C  0.15284039  0.73185003  0.13283290    -0.08700
C1567       C  0.18032190  0.71256115  0.14133537     0.61600
H1568       H  0.12995337  0.72201728  0.17570278     0.12300
H1569       H  0.12203461  0.77502586  0.07544179     0.12400
C1570       C  0.07023758  0.78070261  0.10780117     0.61900
F1571       F  0.17544755  0.69558024  0.16780303    -0.23300
F1572       F  0.20510887  0.73119180  0.14646040    -0.20600
F1573       F  0.18677871  0.69229506  0.11782504    -0.20300
F1574       F  0.06165528  0.80183959  0.12989587    -0.20300
F1575       F  0.04758618  0.75929439  0.10357276    -0.20700
F1576       F  0.07395708  0.79623019  0.08026042    -0.23300
C1577       C  0.13140344  0.74940183  0.34381219    -0.06200
C1578       C  0.10103906  0.75293888  0.35326336    -0.00300
C1579       C  0.09517942  0.75755031  0.38531411    -0.08800
C1580       C  0.11985660  0.75862419  0.40594408    -0.06200
C1581       C  0.15011221  0.75415463  0.39660122    -0.00300
C1582       C  0.15599576  0.74943043  0.36457573    -0.08700
C1583       C  0.18766856  0.74354883  0.35168753     0.61600
H1584       H  0.13590964  0.74599031  0.31958567     0.12300
H1585       H  0.11544032  0.76263666  0.43010526     0.12400
C1586       C  0.06333474  0.76121672  0.39850102     0.61900
F1587       F  0.18739669  0.73845367  0.32021416    -0.23300
F1588       F  0.20000709  0.71780452  0.36539022    -0.20600
F1589       F  0.20608535  0.76861908  0.35686622    -0.20300
F1590       F  0.04672708  0.73490340  0.39324360    -0.20300
F1591       F  0.04911116  0.78611955  0.38511920    -0.20700
F1592       F  0.06353228  0.76602463  0.43002787    -0.23300
C1593       C  0.38177109  0.77594212  0.35606064    -0.06200
C1594       C  0.39916174  0.74939263  0.35215833    -0.00300
C1595       C  0.39293101  0.72328862  0.37033389    -0.08800
C1596       C  0.36996104  0.72506821  0.39290320    -0.06200
C1597       C  0.35248671  0.75170713  0.39680624    -0.00300
C1598       C  0.35841712  0.77757312  0.37814103    -0.08700
C1599       C  0.34052197  0.80694863  0.38184977     0.61600
H1600       H  0.38671987  0.79546257  0.34155055     0.12300
H1601       H  0.36523944  0.70553462  0.40746875     0.12400
C1602       C  0.40981498  0.69351285  0.36496578     0.61900
F1603       F  0.35190132  0.82994473  0.36330491    -0.23300
F1604       F  0.34190788  0.81676690  0.41211456    -0.20600
F1605       F  0.31060517  0.80202788  0.37373337    -0.20300
F1606       F  0.44010789  0.69714318  0.37235119    -0.20300
F1607       F  0.40731519  0.68517085  0.33435096    -0.20700
F1608       F  0.39816941  0.66994174  0.38257436    -0.23300
C1609       C  0.39685275  0.87974111  0.02613905    -0.06200
C1610       C  0.39556613  0.90220482  0.00307971    -0.00300
C1611       C  0.37193004  0.90095312  0.48102979    -0.08800
C1612       C  0.35057418  0.87694673  0.48273202    -0.06200
C1613       C  0.35183323  0.85436259  0.00572617    -0.00300
C1614       C  0.37495100  0.85639417  0.02855147    -0.08700
C1615       C  0.37735308  0.83589245  0.05666786     0.61600
H1616       H  0.41486763  0.88094406  0.04313668     0.12300
H1617       H  0.33261106  0.87552679  0.46576253     0.12400
C1618       C  0.36947576  0.92448336  0.45538016     0.61900
F1619       F  0.37722524  0.85384594  0.58303119    -0.23300
F1620       F  0.40448394  0.82008906  0.55563897    -0.20600
F1621       F  0.35386876  0.81522553  0.05928641    -0.20300
F1622       F  0.39709186  0.92788090  0.44071387    -0.20300
F1623       F  0.36051017  0.95235424  0.96753060    -0.20700
F1624       F  0.34844884  0.91595922  0.93329392    -0.23300
C1625       C  0.37889313  0.65347953  0.97885693    -0.06200
C1626       C  0.35329003  0.64899765  0.99766638    -0.00300
C1627       C  0.35218434  0.62268436  0.51681029    -0.08800
C1628       C  0.37672536  0.60190355  0.51625845    -0.06200
C1629       C  0.40225602  0.60622518  0.99736020    -0.00300
C1630       C  0.40328981  0.63244144  0.97804238    -0.08700
C1631       C  0.42919919  0.63763565  0.95558320     0.61600
H1632       H  0.37940232  0.67359133  0.96430442     0.12300
H1633       H  0.37611281  0.58177723  0.53078671     0.12400
C1634       C  0.32566854  0.61670701  0.53840568     0.61900
F1635       F  0.42403767  0.66281574  0.43694516    -0.23300
F1636       F  0.43257061  0.61233228  0.43675686    -0.20600
F1637       F  0.45586506  0.64287201  0.97143762    -0.20300
F1638       F  0.29995781  0.60988420  0.52151050    -0.20300
F1639       F  0.32037639  0.64236250  0.05658185    -0.20700
F1640       F  0.33134787  0.59246103  0.05811120    -0.23300
C1641       C  0.12603122  0.90206730  0.01792001    -0.06200
C1642       C  0.09855478  0.89483161  0.00319888    -0.00300
C1643       C  0.09561133  0.86578673  0.48874466    -0.08800
C1644       C  0.12051653  0.84541195  0.48944647    -0.06200
C1645       C  0.14831479  0.85287364  0.00379252    -0.00300
C1646       C  0.15100521  0.88191200  0.01846300    -0.08700
C1647       C  0.17984316  0.89231026  0.03455796     0.61600
H1648       H  0.12796933  0.92423320  0.02887766     0.12300
H1649       H  0.11854249  0.82338159  0.47823591     0.12400
C1650       C  0.06683678  0.85648973  0.47188031     0.61900
F1651       F  0.17510460  0.91855295  0.55191055    -0.23300
F1652       F  0.20197723  0.89799957  0.51335313    -0.20600
F1653       F  0.18982293  0.87010474  0.05477661    -0.20300
F1654       F  0.05942450  0.87837213  0.45011689    -0.20300
F1655       F  0.04326750  0.85348531  0.99286413    -0.20700
F1656       F  0.07010099  0.82873403  0.95698959    -0.23300
C1657       C  0.10021622  0.62660835  0.01547057    -0.06200
C1658       C  0.10571575  0.59920254  0.99946378    -0.00300
C1659       C  0.13357637  0.59603003  0.48305757    -0.08800
C1660       C  0.15468150  0.62041163  0.48359557    -0.06200
C1661       C  0.14902399  0.64796361  0.99949981    -0.00300
C1662       C  0.12118761  0.65098814  0.01594132    -0.08700
C1663       C  0.11341203  0.67946332  0.03449725     0.61600
H1664       H  0.07898003  0.62881293  0.02781793     0.12300
H1665       H  0.17588967  0.61817186  0.47120719     0.12400
C1666       C  0.14076390  0.56755154  0.46426028     0.61900
F1667       F  0.08779535  0.67535005  0.05247796    -0.23300
F1668       F  0.10778784  0.70369846  0.51459266    -0.20600
F1669       F  0.13710069  0.68671405  0.05403271    -0.20300
F1670       F  0.11711366  0.56136984  0.44426530    -0.20300
F1671       F  0.14504499  0.54284005  0.98369888    -0.20700
F1672       F  0.16683041  0.57103931  0.44682268    -0.23300
C1673       C  0.37042920  0.51018555  0.40611898    -0.06200
C1674       C  0.40038805  0.50413677  0.39650632    -0.00300
C1675       C  0.40568423  0.99760312  0.36519137    -0.08800
C1676       C  0.38104823  0.99862452  0.34467611    -0.06200
C1677       C  0.35125473  0.50549536  0.35375948    -0.00300
C1678       C  0.34571992  0.51082154  0.38563900    -0.08700
C1679       C  0.31426236  0.51749792  0.39861286     0.61600
H1680       H  0.36624043  0.51433999  0.43029304     0.12300
H1681       H  0.38519114  0.99432805  0.32055604     0.12400
C1682       C  0.43687965  0.98963310  0.35224505     0.61900
F1683       F  0.31498860  0.52421762  0.42976996    -0.23300
F1684       F  0.29576766  0.99186530  0.39558287    -0.20600
F1685       F  0.30175852  0.54249445  0.38373509    -0.20300
F1686       F  0.44839010  0.96415434  0.36713900    -0.20300
F1687       F  0.45659701  0.51579972  0.35592354    -0.20700
F1688       F  0.43593887  0.98287208  0.32110248    -0.23300
C1689       C  0.10000862  0.51576247  0.37475013    -0.06200
C1690       C  0.10348867  0.49533735  0.39942940    -0.00300
C1691       C  0.12950035  0.97711180  0.40061536    -0.08800
C1692       C  0.15159589  0.97979446  0.37731742    -0.06200
C1693       C  0.14803343  0.49938607  0.35251773    -0.00300
C1694       C  0.12169743  0.51811482  0.35110613    -0.08700
C1695       C  0.11648271  0.54093163  0.32518818     0.61600
H1696       H  0.07999678  0.53017565  0.37426755     0.12300
H1697       H  0.17174829  0.96558605  0.37807671     0.12400
C1698       C  0.13358523  0.95321233  0.42576067     0.61900
F1699       F  0.09155671  0.55946334  0.33072560    -0.23300
F1700       F  0.11096988  0.02561707  0.29757674    -0.20600
F1701       F  0.14150265  0.55964146  0.32194367    -0.20300
F1702       F  0.10796302  0.93504964  0.42754357    -0.20300
F1703       F  0.13952102  0.46615765  0.45345416    -0.20700
F1704       F  0.15816865  0.93427464  0.42003016    -0.23300
C1705       C  0.12040869  0.49044024  0.15674706    -0.06200
C1706       C  0.15020730  0.49743112  0.14751708    -0.00300
C1707       C  0.15634049  0.00159810  0.11549360    -0.08800
C1708       C  0.13169613  0.00173353  0.09493045    -0.06200
C1709       C  0.10140702  0.49652264  0.10440887    -0.00300
C1710       C  0.09610604  0.48876454  0.13583512    -0.08700
C1711       C  0.06572695  0.47701009  0.14753321     0.61600
H1712       H  0.11621796  0.48551606  0.18078578     0.12300
H1713       H  0.13581597  0.00712072  0.07099437     0.12400
C1714       C  0.18801869  0.00724333  0.10263634     0.61900
F1715       F  0.06748871  0.96621360  0.17773033    -0.23300
F1716       F  0.05643377  0.95178182  0.12968111    -0.20600
F1717       F  0.04410522  0.49987493  0.14648340    -0.20300
F1718       F  0.20612915  0.98181185  0.10760845    -0.20300
F1719       F  0.20147476  0.53201320  0.11633256    -0.20700
F1720       F  0.18760350  0.51234463  0.07120269    -0.23300
C1721       C  0.37010526  0.01061460  0.09473806    -0.06200
C1722       C  0.40014722  0.51122317  0.10360466    -0.00300
C1723       C  0.40667812  0.51495002  0.13562259    -0.08800
C1724       C  0.38275610  0.51173621  0.15695308    -0.06200
C1725       C  0.35215233  0.50997710  0.14775369    -0.00300
C1726       C  0.34599944  0.01270461  0.11587877    -0.08700
C1727       C  0.31467242  0.02092981  0.10345172     0.61600
H1728       H  0.36490574  0.00997533  0.07039939     0.12300
H1729       H  0.38795224  0.51177255  0.18130184     0.12400
C1730       C  0.43751742  0.52543142  0.14766045     0.61900
F1731       F  0.31520564  0.53097349  0.07307453    -0.23300
F1732       F  0.30312382  0.54680143  0.12030671    -0.20600
F1733       F  0.29506453  0.99650274  0.10589617    -0.20300
F1734       F  0.44601195  0.55192590  0.13254708    -0.20300
F1735       F  0.45985114  0.00245940  0.14381838    -0.20700
F1736       F  0.43726729  0.03028447  0.17955244    -0.23300
C1737       C  0.01765711  0.64907466  0.37436663    -0.06200
C1738       C  0.99872311  0.64520610  0.34877574    -0.00300
C1739       C  0.48137159  0.61884012  0.34592062    -0.08800
C1740       C  0.48306966  0.59692706  0.36970102    -0.06200
C1741       C  0.00184014  0.60010800  0.39546558    -0.00300
C1742       C  0.02023922  0.62669300  0.39738865    -0.08700
C1743       C  0.04380284  0.63095155  0.42258812     0.61600
H1744       H  0.03117789  0.66969386  0.37579155     0.12300
H1745       H  0.46956693  0.57630802  0.36834905     0.12400
C1746       C  0.46119734  0.61263073  0.31816427     0.61900
F1747       F  0.06298018  0.65524419  0.41639325    -0.23300
F1748       F  0.06148176  0.60486989  0.42500404    -0.20600
F1749       F  0.02969739  0.63676368  0.45040732    -0.20300
F1750       F  0.47901617  0.60671415  0.29261759    -0.20300
F1751       F  0.44280279  0.63761154  0.31232772    -0.20700
F1752       F  0.44257670  0.58757517  0.32275329    -0.23300
C1753       C  0.01702231  0.89842341  0.37620897    -0.06200
C1754       C  0.99746421  0.89451907  0.40138988    -0.00300
C1755       C  0.47953913  0.86804263  0.40137510    -0.08800
C1756       C  0.48165542  0.84685484  0.37703984    -0.06200
C1757       C  0.00066799  0.85028980  0.35373593    -0.00300
C1758       C  0.01973216  0.87633740  0.35287154    -0.08700
C1759       C  0.04377439  0.88038767  0.32823607     0.61600
H1760       H  0.03089523  0.91883078  0.37528526     0.12300
H1761       H  0.46831298  0.82608395  0.37763788     0.12400
C1762       C  0.45862755  0.86078187  0.42825602     0.61900
F1763       F  0.06389196  0.90355805  0.33560740    -0.23300
F1764       F  0.03004504  0.88771406  0.30061322    -0.20600
F1765       F  0.06036978  0.85366104  0.32500170    -0.20300
F1766       F  0.43833464  0.88446270  0.43259475    -0.20300
F1767       F  0.47544152  0.85645301  0.45476102    -0.20700
F1768       F  0.44200881  0.83434936  0.42326408    -0.23300
C1769       C  0.98625766  0.86948585  0.09378023    -0.06200
C1770       C  0.98728569  0.90011570  0.10367550    -0.00300
C1771       C  0.48177044  0.90527923  0.13437264    -0.08800
C1772       C  0.48422450  0.88101849  0.15524726    -0.06200
C1773       C  0.98765635  0.85117574  0.14662389    -0.00300
C1774       C  0.98419274  0.84501390  0.11455186    -0.08700
C1775       C  0.97633436  0.81364863  0.10179230     0.61600
H1776       H  0.98663386  0.86452000  0.06937078     0.12300
H1777       H  0.48415012  0.88610760  0.17964056     0.12400
C1778       C  0.47258117  0.93632541  0.14647677     0.61900
F1779       F  0.50207581  0.79470312  0.10218112    -0.23300
F1780       F  0.45317191  0.79888938  0.11712006    -0.20600
F1781       F  0.96775666  0.81486408  0.07111199    -0.20300
F1782       F  0.44908828  0.94749836  0.12854784    -0.20300
F1783       F  0.99804693  0.95700968  0.14659852    -0.20700
F1784       F  0.96401506  0.93561350  0.17794287    -0.23300
C1785       C  0.02697343  0.62971415  0.14390029    -0.06200
C1786       C  0.00297979  0.65091013  0.14413292    -0.00300
C1787       C  0.48077189  0.64994456  0.11955554    -0.08800
C1788       C  0.48171639  0.62564812  0.09845597    -0.06200
C1789       C  0.00483493  0.60385856  0.09992633    -0.00300
C1790       C  0.02883783  0.60673423  0.12129174    -0.08700
C1791       C  0.05644203  0.58601536  0.11969988     0.61600
H1792       H  0.04446648  0.63152473  0.16134532     0.12300
H1793       H  0.46446216  0.62361128  0.08080004     0.12400
C1794       C  0.45692550  0.67479304  0.11558120     0.61900
F1795       F  0.07996115  0.59686070  0.13771921    -0.23300
F1796       F  0.06692144  0.58401984  0.08969982    -0.20600
F1797       F  0.04867469  0.55722643  0.12991383    -0.20300
F1798       F  0.47103578  0.70211292  0.10851092    -0.20300
F1799       F  0.44026329  0.67817960  0.14230170    -0.20700
F1800       F  0.43694558  0.66821992  0.09187219    -0.23300
O1801       O  0.00356222  0.55150117  0.58649257    -0.86900
O1802       O  0.00169573  0.54781551  0.91114987    -0.87100
O1803       O  0.05341895  0.58517699  0.49855019    -0.88700
O1804       O  0.45442151  0.58955233  0.49749232    -0.87500
O1805       O  0.41642197  0.55380602  0.49807038    -0.87100
O1806       O  0.08892683  0.54687364  0.50106710    -0.88400
O1807       O  0.00186375  0.58540452  0.94798829    -0.86900
O1808       O  0.00365100  0.58789552  0.54826653    -0.86500
Zr1809     Zr  0.00270642  0.56192309  0.49880480     2.84300
O1810       O  0.47169159  0.53151691  0.96804578    -1.08500
O1811       O  0.03215349  0.53072335  0.53107302    -1.09200
C1812       C  0.00418286  0.57939826  0.57672111     1.06200
C1813       C  0.00188631  0.57616667  0.91976798     1.06200
C1814       C  0.08119953  0.57541850  0.49955128     1.09100
C1815       C  0.42607605  0.58172653  0.49736511     1.06900
H1816       H  0.04593001  0.54128092  0.95576426     0.32500
O1817       O  0.03276190  0.52928435  0.96875730    -1.29400
H1818       H  0.45950107  0.54678216  0.54261142     0.32200
O1819       O  0.47151695  0.53306429  0.53015717    -1.31100
O1820       O  0.99915699  0.94734164  0.91514126    -0.86900
O1821       O  0.99482892  0.95248150  0.58825478    -0.88400
O1822       O  0.08781833  0.49542679  0.95183873    -0.87000
O1823       O  0.41551638  0.50352410  0.94924803    -0.87000
O1824       O  0.41494839  0.50697322  0.55050398    -0.86700
O1825       O  0.08615452  0.49657267  0.55164235    -0.86500
O1826       O  0.04638507  0.91153922  0.50318172    -0.86900
O1827       O  0.44770419  0.91543407  0.50203088    -0.86400
O1828       O  0.08446560  0.94705179  0.50087450    -0.87400
O1829       O  0.41241795  0.95416062  0.50175636    -0.86600
O1830       O  0.05148289  0.49619612  0.91399945    -0.87000
O1831       O  0.04930634  0.49902436  0.58848798    -0.86700
O1832       O  0.45182933  0.50617538  0.58732505    -0.86400
O1833       O  0.45246361  0.50191782  0.91248070    -0.86800
O1834       O  0.99600589  0.91139331  0.95338455    -0.87100
O1835       O  0.99206302  0.91527681  0.55153720    -0.88400
Zr1836     Zr  0.00124454  0.49864052  0.93818477     2.83100
Zr1837     Zr  0.00036857  0.50125781  0.56234950     2.83500
Zr1838     Zr  0.06182370  0.49780346  0.50115191     2.84100
Zr1839     Zr  0.43945916  0.50292503  0.49984158     2.83400
Zr1840     Zr  0.99768563  0.93900246  0.50171629     2.84200
O1841       O  0.46913564  0.97121073  0.53149783    -1.09000
O1842       O  0.03037812  0.96743142  0.97026911    -1.08500
C1843       C  0.99709072  0.91934946  0.92487596     1.06200
C1844       C  0.99144338  0.92437495  0.57975723     1.08800
C1845       C  0.07936851  0.49517429  0.92339659     1.06400
C1846       C  0.42445937  0.50313074  0.92087347     1.06700
C1847       C  0.42389859  0.50806176  0.57894182     1.06300
C1848       C  0.07730218  0.49725382  0.58004757     1.05900
C1849       C  0.07471992  0.91921174  0.50214166     1.06300
C1850       C  0.42010976  0.92555174  0.50217439     1.05800
H1851       H  0.04173618  0.95525967  0.54570114     0.32500
O1852       O  0.03001945  0.96855619  0.53248111    -1.30100
H1853       H  0.45587313  0.95794915  0.95672574     0.32500
O1854       O  0.46910084  0.97022571  0.96931811    -1.31400
O1855       O  0.00136186  0.70217272  0.66087733    -0.86900
O1856       O  0.99889475  0.69797506  0.83521441    -0.87100
O1857       O  0.05059134  0.66385326  0.74799528    -0.88700
O1858       O  0.45084168  0.66327531  0.74658684    -0.87500
O1859       O  0.41442249  0.70071994  0.74928664    -0.87100
O1860       O  0.08624193  0.70180279  0.74785215    -0.88400
O1861       O  0.99949909  0.66178198  0.79699977    -0.86900
O1862       O  0.00234085  0.66410937  0.69717993    -0.86500
Zr1863     Zr  0.00051022  0.68820359  0.74815683     2.84300
O1864       O  0.46960729  0.71901602  0.77947303    -1.08500
O1865       O  0.03083303  0.71988559  0.71793431    -1.09200
C1866       C  0.00213686  0.67389397  0.66905296     1.06200
C1867       C  0.99866708  0.66995291  0.82544871     1.06200
C1868       C  0.07836547  0.67345660  0.74781756     1.09100
C1869       C  0.42294894  0.67243253  0.74740590     1.06900
H1870       H  0.04374058  0.70599239  0.79291217     0.32500
O1871       O  0.03086681  0.71876276  0.78021865    -1.29400
H1872       H  0.45647251  0.70656649  0.70534468     0.32200
O1873       O  0.46892528  0.71956747  0.71800016    -1.31100
O1874       O  0.99973676  0.79848739  0.83766989    -0.86900
O1875       O  0.99442146  0.79915456  0.66187749    -0.88400
O1876       O  0.08549969  0.75210155  0.80017914    -0.87000
O1877       O  0.41372375  0.75085257  0.79978700    -0.87000
O1878       O  0.41262683  0.74866417  0.70065272    -0.86700
O1879       O  0.08583916  0.75050009  0.69942039    -0.86500
O1880       O  0.04929146  0.83796586  0.74744414    -0.86900
O1881       O  0.45058457  0.83841195  0.74820467    -0.86400
O1882       O  0.08546896  0.80057041  0.74949608    -0.87400
O1883       O  0.41380810  0.80133075  0.74721170    -0.86600
O1884       O  0.04885053  0.75010020  0.83715284    -0.87000
O1885       O  0.04899877  0.75036846  0.66228550    -0.86700
O1886       O  0.44918177  0.74553262  0.66352097    -0.86400
O1887       O  0.45086035  0.74883526  0.83685464    -0.86000
O1888       O  0.00062353  0.83617571  0.80083785    -0.87100
O1889       O  0.99377709  0.83601213  0.69909566    -0.88400
Zr1890     Zr  0.99970180  0.74898059  0.81164404     2.83100
Zr1891     Zr  0.99937154  0.75058634  0.68780068     2.83500
Zr1892     Zr  0.06069060  0.75097337  0.74957538     2.84100
Zr1893     Zr  0.43867103  0.75088261  0.74961693     2.83400
Zr1894     Zr  0.99929437  0.81243027  0.74994270     2.84200
O1895       O  0.46897491  0.78145320  0.71806158    -1.09000
O1896       O  0.02973409  0.78104813  0.78097567    -1.08500
C1897       C  0.00055975  0.82680146  0.82906547     1.06200
C1898       C  0.99209178  0.82712382  0.67067071     1.08800
C1899       C  0.07681316  0.75167898  0.82870568     1.06400
C1900       C  0.42285295  0.74954842  0.82802370     1.06700
C1901       C  0.42120034  0.74535578  0.67253688     1.06300
C1902       C  0.07706087  0.75032603  0.67098857     1.05900
C1903       C  0.07738766  0.82883719  0.74790131     1.06300
C1904       C  0.42256967  0.82960444  0.74700913     1.05800
H1905       H  0.04233132  0.79479178  0.70522917     0.32500
O1906       O  0.03008726  0.78204305  0.71830920    -1.30100
H1907       H  0.45694477  0.79449237  0.79328582     0.32500
O1908       O  0.46950932  0.78174308  0.78035341    -1.31400
O1909       O  0.33711272  0.00614519  0.70100621    -0.86900
O1910       O  0.16505740  0.99957629  0.70012623    -0.87100
O1911       O  0.25467798  0.94943722  0.66470265    -0.88700
O1912       O  0.24947768  0.55020684  0.66328131    -0.87500
O1913       O  0.24939931  0.58800506  0.70011374    -0.87100
O1914       O  0.25195759  0.91273154  0.70247275    -0.88400
O1915       O  0.20235975  0.99743048  0.66383058    -0.86900
O1916       O  0.30074009  0.00310769  0.66378136    -0.86500
Zr1917     Zr  0.25146284  0.00021614  0.68895918     2.84300
O1918       O  0.21989126  0.53153374  0.71909870    -1.08500
O1919       O  0.28204464  0.97014743  0.72076252    -1.09200
C1920       C  0.32853463  0.00608336  0.67245070     1.06200
C1921       C  0.17427610  0.99789177  0.67193011     1.06200
C1922       C  0.25395913  0.92132391  0.67412276     1.09100
C1923       C  0.24962571  0.57855140  0.67195382     1.06900
H1924       H  0.20839163  0.95638656  0.70714807     0.32500
O1925       O  0.22068031  0.96947258  0.71997405    -1.29400
H1926       H  0.29277594  0.54581999  0.70681196     0.32200
O1927       O  0.28048167  0.53281099  0.71969045    -1.31100
O1928       O  0.16416400  0.00076651  0.80020701    -0.86900
O1929       O  0.33586469  0.00492062  0.80154708    -0.88400
O1930       O  0.20049804  0.91406200  0.75157978    -0.87000
O1931       O  0.19932070  0.58784657  0.74669683    -0.87000
O1932       O  0.29782730  0.59020219  0.74987684    -0.86700
O1933       O  0.30177212  0.91517328  0.75010219    -0.86500
O1934       O  0.24969989  0.95188463  0.83878333    -0.86900
O1935       O  0.24877163  0.55163120  0.83855304    -0.86400
O1936       O  0.25096439  0.91408110  0.80195130    -0.87400
O1937       O  0.24823908  0.58849632  0.80075025    -0.86600
O1938       O  0.16445820  0.95160142  0.74944905    -0.87000
O1939       O  0.33756917  0.95328202  0.74974350    -0.86700
O1940       O  0.33535388  0.55385386  0.75016411    -0.86400
O1941       O  0.16331926  0.55025362  0.74722650    -0.86800
O1942       O  0.20015355  0.00080991  0.83829150    -0.87100
O1943       O  0.29898416  0.00276907  0.83833641    -0.88400
Zr1944     Zr  0.18953056  0.00090802  0.75026155     2.83100
Zr1945     Zr  0.31168244  0.00274894  0.75120037     2.83500
Zr1946     Zr  0.25109293  0.93900962  0.75176690     2.84100
Zr1947     Zr  0.24915111  0.56349647  0.75041392     2.83400
Zr1948     Zr  0.24969086  0.00161572  0.81302600     2.84200
O1949       O  0.28012274  0.53333860  0.78201706    -1.09000
O1950       O  0.21961642  0.97004106  0.78212978    -1.08500
C1951       C  0.17235793  0.00078958  0.82874280     1.06200
C1952       C  0.32697259  0.00430511  0.82991865     1.08800
C1953       C  0.17242116  0.92329273  0.75050435     1.06400
C1954       C  0.17147029  0.57857234  0.74581500     1.06700
C1955       C  0.32599263  0.58198471  0.74977230     1.06300
C1956       C  0.32957913  0.92484636  0.74965153     1.05900
C1957       C  0.25029777  0.92361190  0.83009247     1.06300
C1958       C  0.24826817  0.57963977  0.82914610     1.05800
H1959       H  0.29430198  0.95864166  0.79540404     0.32500
O1960       O  0.28142938  0.97102148  0.78243771    -1.30100
H1961       H  0.20549935  0.54539430  0.79431300     0.32500
O1962       O  0.21863902  0.53274324  0.78183150    -1.31400
O1963       O  0.20119578  0.66350960  0.99834546    -0.86900
O1964       O  0.20106330  0.83813625  0.00329868    -0.87100
O1965       O  0.16601314  0.74858033  0.55162983    -0.88700
O1966       O  0.16521902  0.75285453  0.94976083    -0.87500
O1967       O  0.20210609  0.75406765  0.91294065    -0.87100
O1968       O  0.20284667  0.74737917  0.58883410    -0.88400
O1969       O  0.16466179  0.80081422  0.00236716    -0.86900
O1970       O  0.16454925  0.70070585  0.99923929    -0.86500
Zr1971     Zr  0.18972822  0.75074276  0.00051253     2.84300
O1972       O  0.22054800  0.78254905  0.97051114    -1.08500
O1973       O  0.22054625  0.71886045  0.53063210    -1.09200
C1974       C  0.17310582  0.67236714  0.99905362     1.06200
C1975       C  0.17308236  0.82918490  0.00327843     1.06200
C1976       C  0.17485179  0.74750738  0.58009249     1.09100
C1977       C  0.17408819  0.75372450  0.92128811     1.06900
H1978       H  0.20797305  0.79290183  0.54606254     0.32500
O1979       O  0.22054392  0.78068967  0.53267285    -1.29400
H1980       H  0.20765340  0.70852588  0.95488527     0.32200
O1981       O  0.22032481  0.72085729  0.96810168    -1.31100
O1982       O  0.30039059  0.83836445  0.00411692    -0.86900
O1983       O  0.30098401  0.66408634  0.99756417    -0.88400
O1984       O  0.25188370  0.79743114  0.58986859    -0.87000
O1985       O  0.24969539  0.80340071  0.91456552    -0.87000
O1986       O  0.25148602  0.70364884  0.91122788    -0.86700
O1987       O  0.25089485  0.69783652  0.58583904    -0.86500
O1988       O  0.33751803  0.74651960  0.54856645    -0.86900
O1989       O  0.33778510  0.75127525  0.94922323    -0.86400
O1990       O  0.30178570  0.74517800  0.58650352    -0.87400
O1991       O  0.30069039  0.75279012  0.91211990    -0.86600
O1992       O  0.25173771  0.83594695  0.55386596    -0.87000
O1993       O  0.25022422  0.66187634  0.54731380    -0.86700
O1994       O  0.25138253  0.66545811  0.94765783    -0.86400
O1995       O  0.24923054  0.83957930  0.95307211    -0.86800
O1996       O  0.33761206  0.80147451  0.00306625    -0.87100
O1997       O  0.33770836  0.70119434  0.99731589    -0.88400
Zr1998     Zr  0.25093106  0.81288318  0.00249119     2.83100
Zr1999     Zr  0.25099223  0.68894491  0.99825822     2.83500
Zr2000     Zr  0.25171608  0.74864524  0.56238157     2.84100
Zr2001     Zr  0.25129653  0.75280542  0.93813384     2.83400
Zr2002     Zr  0.31253075  0.75117764  0.99932082     2.84200
O2003       O  0.28181335  0.72068744  0.96792690    -1.09000
O2004       O  0.28212809  0.78089409  0.53222335    -1.08500
C2005       C  0.32848217  0.82967716  0.00458610     1.06200
C2006       C  0.32899387  0.67293097  0.99749600     1.08800
C2007       C  0.25176531  0.82589958  0.58188004     1.06400
C2008       C  0.24890652  0.83124074  0.92451177     1.06700
C2009       C  0.25159315  0.67530116  0.91968117     1.06300
C2010       C  0.25012598  0.66996224  0.57589436     1.05900
C2011       C  0.32959809  0.74426837  0.57691805     1.06300
C2012       C  0.32871718  0.75198979  0.92093578     1.05800
H2013       H  0.29462732  0.70557390  0.54186353     0.32500
O2014       O  0.28206756  0.71900011  0.52971131    -1.30100
H2015       H  0.29446763  0.79674501  0.95713372     0.32500
O2016       O  0.28187681  0.78349195  0.96965173    -1.31400
C2017       C  0.22709428  0.60210194  0.62552243    -0.06200
C2018       C  0.25032484  0.60211261  0.64755938    -0.00300
C2019       C  0.27406130  0.62381922  0.64537928    -0.08800
C2020       C  0.27310290  0.64552662  0.62148379    -0.06200
C2021       C  0.24986087  0.64547662  0.59937540    -0.00300
C2022       C  0.22672342  0.62300532  0.60088591    -0.08700
C2023       C  0.20160080  0.62114346  0.57694405     0.61600
H2024       H  0.20898635  0.58569077  0.62800908     0.12300
H2025       H  0.29067642  0.66274398  0.61976012     0.12400
C2026       C  0.30043819  0.62385917  0.66792445     0.61900
F2027       F  0.18060683  0.59868206  0.58401025    -0.23300
F2028       F  0.21384197  0.61419472  0.54848543    -0.20600
F2029       F  0.18639923  0.64873807  0.57511347    -0.20300
F2030       F  0.31306590  0.59490864  0.66975633    -0.20300
F2031       F  0.29032731  0.63267648  0.69671889    -0.20700
F2032       F  0.32307451  0.64389899  0.65900864    -0.23300
C2033       C  0.27698236  0.86927492  0.60767610    -0.06200
C2034       C  0.25227490  0.84910669  0.60668150    -0.00300
C2035       C  0.22870472  0.85191200  0.62873747    -0.08800
C2036       C  0.23007748  0.87604384  0.65021503    -0.06200
C2037       C  0.25444678  0.89669241  0.65070366    -0.00300
C2038       C  0.27897301  0.89250170  0.63004994    -0.08700
C2039       C  0.30766393  0.91144191  0.63259315     0.61600
H2040       H  0.29505354  0.86628785  0.59101575     0.12300
H2041       H  0.21204715  0.87903050  0.66691732     0.12400
C2042       C  0.20214777  0.82978506  0.62948441     0.61900
F2043       F  0.33003549  0.90131654  0.61263146    -0.23300
F2044       F  0.31896245  0.90972039  0.66225423    -0.20600
F2045       F  0.30137321  0.94152641  0.62567303    -0.20300
F2046       F  0.21238856  0.80084680  0.63704746    -0.20300
F2047       F  0.18817491  0.82874272  0.60101948    -0.20700
F2048       F  0.18057339  0.83829730  0.65104280    -0.23300
C2049       C  0.22242044  0.88928879  0.86527542    -0.06200
C2050       C  0.25034301  0.90019681  0.85444917    -0.00300
C2051       C  0.27771410  0.88886136  0.86702933    -0.08800
C2052       C  0.27628550  0.86670539  0.89043749    -0.06200
C2053       C  0.24841406  0.85553673  0.90106637    -0.00300
C2054       C  0.22097793  0.86689762  0.88853569    -0.08700
C2055       C  0.19048664  0.85542076  0.89985631     0.61600
H2056       H  0.20178618  0.89844667  0.85529833     0.12300
H2057       H  0.29693331  0.85779359  0.90055036     0.12400
C2058       C  0.30813199  0.90018038  0.85546419     0.61900
F2059       F  0.16659067  0.86941619  0.88464459    -0.23300
F2060       F  0.18757003  0.86141934  0.93099381    -0.20600
F2061       F  0.18838228  0.82423280  0.89503553    -0.20300
F2062       F  0.31028237  0.93139352  0.86005873    -0.20300
F2063       F  0.31080077  0.89386075  0.82436164    -0.20700
F2064       F  0.33209491  0.88639567  0.87064322    -0.23300
C2065       C  0.27639104  0.61333557  0.86433633    -0.06200
C2066       C  0.24832965  0.60373225  0.85276568    -0.00300
C2067       C  0.22126168  0.61783668  0.86305678    -0.08800
C2068       C  0.22326780  0.64193396  0.88439257    -0.06200
C2069       C  0.25140439  0.65183301  0.89554363    -0.00300
C2070       C  0.27844205  0.63754945  0.88548916    -0.08700
C2071       C  0.30919180  0.64819382  0.89687391     0.61600
H2072       H  0.29670517  0.60168869  0.85662971     0.12300
H2073       H  0.20287908  0.65286159  0.89302208     0.12400
C2074       C  0.19053554  0.60662046  0.85232781     0.61900
F2075       F  0.33270864  0.63187687  0.88348954    -0.23300
F2076       F  0.31103815  0.64451371  0.92843786    -0.20600
F2077       F  0.31294914  0.67875964  0.88968765    -0.20300
F2078       F  0.18675639  0.57656797  0.86146283    -0.20300
F2079       F  0.18877878  0.60830160  0.82062149    -0.20700
F2080       F  0.16702322  0.62383116  0.86454567    -0.23300
C2081       C  0.37202395  0.65509835  0.76368929    -0.06200
C2082       C  0.39842104  0.64898848  0.74666053    -0.00300
C2083       C  0.39998345  0.62166447  0.72898168    -0.08800
C2084       C  0.37563304  0.60082389  0.73044391    -0.06200
C2085       C  0.34964490  0.60645020  0.74838256    -0.00300
C2086       C  0.34757609  0.63448421  0.76491997    -0.08700
C2087       C  0.32041860  0.64243440  0.78487599     0.61600
H2088       H  0.37084889  0.67627286  0.77658600     0.12300
H2089       H  0.37680848  0.57964235  0.71753502     0.12400
C2090       C  0.42681081  0.61439567  0.70826106     0.61900
F2091       F  0.32530935  0.66847853  0.80237567    -0.23300
F2092       F  0.31463705  0.61861572  0.80485591    -0.20600
F2093       F  0.29529572  0.64766626  0.76654715    -0.20300
F2094       F  0.45161057  0.60636588  0.72601737    -0.20300
F2095       F  0.43393871  0.63947359  0.69033625    -0.20700
F2096       F  0.42055816  0.59039500  0.68850812    -0.23300
C2097       C  0.35190702  0.87737184  0.72736913    -0.06200
C2098       C  0.35427097  0.90139577  0.74872157    -0.00300
C2099       C  0.37986753  0.90233312  0.76860812    -0.08800
C2100       C  0.40141248  0.87842467  0.76724479    -0.06200
C2101       C  0.39875880  0.85406069  0.74631812    -0.00300
C2102       C  0.37413652  0.85415235  0.72517335    -0.08700
C2103       C  0.37164857  0.83040869  0.69983468     0.61600
H2104       H  0.33250997  0.87710537  0.71207473     0.12300
H2105       H  0.42067365  0.87852118  0.78272933     0.12400
C2106       C  0.38447108  0.92824669  0.79142955     0.61900
F2107       F  0.34890492  0.83746131  0.67898039    -0.23300
F2108       F  0.36505153  0.80239739  0.71266748    -0.20600
F2109       F  0.39871265  0.82851420  0.68377618    -0.20300
F2110       F  0.35872054  0.93216030  0.80917485    -0.20300
F2111       F  0.39059127  0.95498631  0.77564077    -0.20700
F2112       F  0.40851863  0.92260264  0.81113457    -0.23300
C2113       C  0.15346570  0.63071303  0.75899887    -0.06200
C2114       C  0.14729587  0.60263657  0.74448975    -0.00300
C2115       C  0.11867599  0.59864928  0.72980240    -0.08800
C2116       C  0.09717051  0.62250119  0.73142551    -0.06200
C2117       C  0.10302075  0.65006998  0.74694605    -0.00300
C2118       C  0.13183421  0.65433425  0.76108232    -0.08700
C2119       C  0.13954942  0.68272675  0.77987223     0.61600
H2120       H  0.17547639  0.63385272  0.76951101     0.12300
H2121       H  0.07533088  0.61978833  0.72034831     0.12400
C2122       C  0.11083315  0.57010624  0.71143489     0.61900
F2123       F  0.16721328  0.67994354  0.79471799    -0.23300
F2124       F  0.11757909  0.68728388  0.80217159    -0.20600
F2125       F  0.14128812  0.70814502  0.76099763    -0.20300
F2126       F  0.10824244  0.54521919  0.73084150    -0.20300
F2127       F  0.13312928  0.56460348  0.68969868    -0.20700
F2128       F  0.08347750  0.57311987  0.69604744    -0.23300
C2129       C  0.09484605  0.88253666  0.75599166    -0.06200
C2130       C  0.10225678  0.85252397  0.74721604    -0.00300
C2131       C  0.13294289  0.84619552  0.73853404    -0.08800
C2132       C  0.15469601  0.86988730  0.74017986    -0.06200
C2133       C  0.14738732  0.89974992  0.74977231    -0.00300
C2134       C  0.11652427  0.90618697  0.75779023    -0.08700
C2135       C  0.10587131  0.93752710  0.76884994     0.61600
H2136       H  0.07153095  0.88745090  0.76173660     0.12300
H2137       H  0.17793422  0.86515821  0.73367500     0.12400
C2138       C  0.14312947  0.81499499  0.72668681     0.61900
F2139       F  0.07604179  0.93719479  0.77883265    -0.23300
F2140       F  0.10762958  0.95846645  0.74503613    -0.20600
F2141       F  0.12351815  0.94706166  0.79337112    -0.20300
F2142       F  0.12461909  0.80586922  0.70265324    -0.20300
F2143       F  0.14207952  0.79366838  0.75019458    -0.20700
F2144       F  0.17261589  0.81546293  0.71572418    -0.23300
C2145       C  0.40641517  0.74335201  0.61757172    -0.06200
C2146       C  0.39743844  0.74116797  0.64851878    -0.00300
C2147       C  0.36671754  0.73366005  0.65508086    -0.08800
C2148       C  0.34544252  0.73545546  0.63109101    -0.06200
C2149       C  0.35413152  0.74052688  0.60032394    -0.00300
C2150       C  0.38573707  0.74108451  0.59318237    -0.08700
C2151       C  0.39844245  0.73762647  0.56065655     0.61600
H2152       H  0.43015314  0.74640602  0.61231605     0.12300
H2153       H  0.32167014  0.73230191  0.63643304     0.12400
C2154       C  0.35632129  0.72144237  0.68617467     0.61900
F2155       F  0.42970890  0.73430827  0.56058513    -0.23300
F2156       F  0.39165771  0.76295966  0.54298610    -0.20600
F2157       F  0.38645388  0.71169222  0.54707098    -0.20300
F2158       F  0.35471977  0.74469534  0.70758882    -0.20300
F2159       F  0.37626582  0.69915876  0.69626966    -0.20700
F2160       F  0.32789866  0.70811455  0.68438622    -0.23300
C2161       C  0.12838763  0.73370387  0.65379319    -0.06200
C2162       C  0.10140454  0.74953355  0.64688104    -0.00300
C2163       C  0.09893871  0.76438193  0.61785299    -0.08800
C2164       C  0.12370032  0.76342100  0.59741955    -0.06200
C2165       C  0.15061156  0.74756137  0.60423161    -0.00300
C2166       C  0.15290168  0.73198933  0.63293754    -0.08700
C2167       C  0.18039426  0.71273556  0.64148569     0.61600
H2168       H  0.13001137  0.72219121  0.67581061     0.12300
H2169       H  0.12208064  0.77508613  0.57549108     0.12400
C2170       C  0.07029014  0.78080304  0.60785587     0.61900
F2171       F  0.17554754  0.69584500  0.66801774    -0.23300
F2172       F  0.20518487  0.73138298  0.64652616    -0.20600
F2173       F  0.18683109  0.69239102  0.61804153    -0.20300
F2174       F  0.06171789  0.80195753  0.62993834    -0.20300
F2175       F  0.04763436  0.75939740  0.60364748    -0.20700
F2176       F  0.07400760  0.79630849  0.58030226    -0.23300
C2177       C  0.13136637  0.74942526  0.84379618    -0.06200
C2178       C  0.10100049  0.75290621  0.85326307    -0.00300
C2179       C  0.09514231  0.75744827  0.88532301    -0.08800
C2180       C  0.11982645  0.75855064  0.90594163    -0.06200
C2181       C  0.15008747  0.75414712  0.89658071    -0.00300
C2182       C  0.15596544  0.74946354  0.86454871    -0.08700
C2183       C  0.18763986  0.74364215  0.85163820     0.61600
H2184       H  0.13587069  0.74605236  0.81956398     0.12300
H2185       H  0.11541038  0.76252680  0.93010861     0.12400
C2186       C  0.06329292  0.76099187  0.89853390     0.61900
F2187       F  0.18736102  0.73858511  0.82015809    -0.23300
F2188       F  0.20002022  0.71789740  0.86530073    -0.20600
F2189       F  0.20602310  0.76873196  0.85684213    -0.20300
F2190       F  0.04674452  0.73465928  0.89317932    -0.20300
F2191       F  0.04900650  0.78591217  0.88525359    -0.20700
F2192       F  0.06348897  0.76567948  0.93007933    -0.23300
C2193       C  0.38178445  0.77601263  0.85607908    -0.06200
C2194       C  0.39915040  0.74945616  0.85212312    -0.00300
C2195       C  0.39292257  0.72332917  0.87026303    -0.08800
C2196       C  0.36993867  0.72507136  0.89281966    -0.06200
C2197       C  0.35247503  0.75171182  0.89676673    -0.00300
C2198       C  0.35843842  0.77761847  0.87816893    -0.08700
C2199       C  0.34057958  0.80700664  0.88195357     0.61600
H2200       H  0.38674450  0.79555639  0.84160451     0.12300
H2201       H  0.36520989  0.70551449  0.90735068     0.12400
C2202       C  0.40985192  0.69357952  0.86488742     0.61900
F2203       F  0.35204408  0.83006110  0.86353657    -0.23300
F2204       F  0.34190125  0.81670389  0.91226102    -0.20600
F2205       F  0.31067683  0.80215963  0.87373892    -0.20300
F2206       F  0.44013286  0.69724981  0.87230477    -0.20300
F2207       F  0.40739500  0.68525569  0.83426333    -0.20700
F2208       F  0.39822748  0.66997999  0.88247050    -0.23300
C2209       C  0.39686286  0.87973227  0.52619781    -0.06200
C2210       C  0.39558390  0.90217691  0.50311818    -0.00300
C2211       C  0.37191300  0.90099047  0.98098930    -0.08800
C2212       C  0.35055652  0.87698100  0.98268082    -0.06200
C2213       C  0.35184377  0.85434661  0.50579274    -0.00300
C2214       C  0.37495544  0.85639088  0.52862364    -0.08700
C2215       C  0.37733959  0.83591336  0.55675939     0.61600
H2216       H  0.41487378  0.88094698  0.54319899     0.12300
H2217       H  0.33258628  0.87557710  0.96571742     0.12400
C2218       C  0.36944828  0.92453957  0.95535655     0.61900
F2219       F  0.37728339  0.85380439  0.08295426    -0.23300
F2220       F  0.40448495  0.82004858  0.05549988    -0.20600
F2221       F  0.35386821  0.81522972  0.55936358    -0.20300
F2222       F  0.39709519  0.92808399  0.94078606    -0.20300
F2223       F  0.36070022  0.95235186  0.46755002    -0.20700
F2224       F  0.34835989  0.91597798  0.43340257    -0.23300
C2225       C  0.37890209  0.65350622  0.47884369    -0.06200
C2226       C  0.35328615  0.64899555  0.49762924    -0.00300
C2227       C  0.35220588  0.62272525  0.01690227    -0.08800
C2228       C  0.37673962  0.60193376  0.01635544    -0.06200
C2229       C  0.40225965  0.60622716  0.49729669    -0.00300
C2230       C  0.40329950  0.63246747  0.47800989    -0.08700
C2231       C  0.42920793  0.63768387  0.45555486     0.61600
H2232       H  0.37941883  0.67363945  0.46432152     0.12300
H2233       H  0.37613641  0.58182799  0.03091339     0.12400
C2234       C  0.32572042  0.61680998  0.03855408     0.61900
F2235       F  0.42401623  0.66273114  0.93692720    -0.23300
F2236       F  0.43258471  0.61225454  0.93682980    -0.20600
F2237       F  0.45588185  0.64287671  0.47140837    -0.20300
F2238       F  0.29997787  0.60996724  0.02171770    -0.20300
F2239       F  0.32028054  0.64221593  0.55648202    -0.20700
F2240       F  0.33127879  0.59231857  0.55791760    -0.23300
C2241       C  0.12594142  0.90196488  0.51803141    -0.06200
C2242       C  0.09851284  0.89477555  0.50320028    -0.00300
C2243       C  0.09561876  0.86580148  0.98883369    -0.08800
C2244       C  0.12051916  0.84542253  0.98954269    -0.06200
C2245       C  0.14826749  0.85282183  0.50380922    -0.00300
C2246       C  0.15090224  0.88179722  0.51860779    -0.08700
C2247       C  0.17966092  0.89209773  0.53490523     0.61600
H2248       H  0.12784736  0.92409742  0.52906415     0.12300
H2249       H  0.11850802  0.82335684  0.97841110     0.12400
C2250       C  0.06681784  0.85646465  0.97203781     0.61900
F2251       F  0.17537322  0.91887124  0.05141940    -0.23300
F2252       F  0.20205503  0.89808238  0.01285818    -0.20600
F2253       F  0.18954233  0.86976693  0.55503228    -0.20300
F2254       F  0.05939447  0.87828112  0.95021082    -0.20300
F2255       F  0.04326416  0.85343168  0.49266933    -0.20700
F2256       F  0.07015443  0.82881062  0.45674543    -0.23300
C2257       C  0.10022002  0.62661893  0.51538491    -0.06200
C2258       C  0.10575737  0.59920345  0.49940724    -0.00300
C2259       C  0.13352109  0.59601628  0.98309334    -0.08800
C2260       C  0.15464266  0.62038672  0.98361794    -0.06200
C2261       C  0.14902957  0.64799026  0.49945937    -0.00300
C2262       C  0.12116667  0.65101768  0.51585266    -0.08700
C2263       C  0.11333195  0.67951655  0.53434873     0.61600
H2264       H  0.07897080  0.62881732  0.52770970     0.12300
H2265       H  0.17583537  0.61814025  0.97120377     0.12400
C2266       C  0.14067167  0.56753266  0.96428772     0.61900
F2267       F  0.08766597  0.67542260  0.55226120    -0.23300
F2268       F  0.10782167  0.70367251  0.01478914    -0.20600
F2269       F  0.13696443  0.68680014  0.55394187    -0.20300
F2270       F  0.11700530  0.56137750  0.94430331    -0.20300
F2271       F  0.14515333  0.54286767  0.48367827    -0.20700
F2272       F  0.16673365  0.57099534  0.94683974    -0.23300
C2273       C  0.37045523  0.51030504  0.90608973    -0.06200
C2274       C  0.40040382  0.50419250  0.89648342    -0.00300
C2275       C  0.40569929  0.99755499  0.86519441    -0.08800
C2276       C  0.38106185  0.99861262  0.84468082    -0.06200
C2277       C  0.35127007  0.50557824  0.85373842    -0.00300
C2278       C  0.34574671  0.51095676  0.88560905    -0.08700
C2279       C  0.31429851  0.51769419  0.89857023     0.61600
H2280       H  0.36627230  0.51448937  0.93025984     0.12300
H2281       H  0.38519483  0.99429317  0.82056315     0.12400
C2282       C  0.43687388  0.98947609  0.85226282     0.61900
F2283       F  0.31503813  0.52450489  0.92970661    -0.23300
F2284       F  0.29579403  0.99198389  0.89561427    -0.20600
F2285       F  0.30180719  0.54265545  0.88362215    -0.20300
F2286       F  0.44830023  0.96397836  0.86719152    -0.20300
F2287       F  0.45662854  0.51577083  0.85590629    -0.20700
F2288       F  0.43591824  0.98268411  0.82112805    -0.23300
C2289       C  0.09997359  0.51566984  0.87479777    -0.06200
C2290       C  0.10347247  0.49526221  0.89948541    -0.00300
C2291       C  0.12950179  0.97711853  0.90064474    -0.08800
C2292       C  0.15160040  0.97979870  0.87735215    -0.06200
C2293       C  0.14802213  0.49934606  0.85257197    -0.00300
C2294       C  0.12166419  0.51804671  0.85115972    -0.08700
C2295       C  0.11643263  0.54088188  0.82526317     0.61600
H2296       H  0.07994769  0.53006280  0.87431177     0.12300
H2297       H  0.17177062  0.96561733  0.87813615     0.12400
C2298       C  0.13361894  0.95326883  0.92583361     0.61900
F2299       F  0.09146837  0.55936332  0.83079754    -0.23300
F2300       F  0.11097257  0.02555259  0.79754946    -0.20600
F2301       F  0.14142201  0.55963970  0.82206986    -0.20300
F2302       F  0.10803111  0.93505871  0.92763091    -0.20300
F2303       F  0.13952002  0.46612196  0.95352404    -0.20700
F2304       F  0.15824317  0.93437076  0.92015155    -0.23300
C2305       C  0.12043146  0.49031488  0.65670946    -0.06200
C2306       C  0.15022893  0.49734644  0.64751117    -0.00300
C2307       C  0.15634099  0.00128464  0.61550717    -0.08800
C2308       C  0.13170078  0.00140619  0.59493986    -0.06200
C2309       C  0.10146470  0.49646699  0.60436546    -0.00300
C2310       C  0.09614253  0.48866798  0.63577817    -0.08700
C2311       C  0.06574466  0.47692726  0.64744302     0.61600
H2312       H  0.11623037  0.48535111  0.68073850     0.12300
H2313       H  0.13584827  0.00666223  0.57097984     0.12400
C2314       C  0.18804338  0.00672998  0.60261740     0.61900
F2315       F  0.06738013  0.96642560  0.67787781    -0.23300
F2316       F  0.05632139  0.95181307  0.62988606    -0.20600
F2317       F  0.04414888  0.49982095  0.64641066    -0.20300
F2318       F  0.20607062  0.98127840  0.60779585    -0.20300
F2319       F  0.20149411  0.53202613  0.61643923    -0.20700
F2320       F  0.18766702  0.51245405  0.57125384    -0.23300
C2321       C  0.37011823  0.01067500  0.59480986    -0.06200
C2322       C  0.40016707  0.51115226  0.60363272    -0.00300
C2323       C  0.40669946  0.51486806  0.63565277    -0.08800
C2324       C  0.38277738  0.51164689  0.65698393    -0.06200
C2325       C  0.35217116  0.50990798  0.64778602    -0.00300
C2326       C  0.34602863  0.01279407  0.61596711    -0.08700
C2327       C  0.31472413  0.02115259  0.60357687     0.61600
H2328       H  0.36490476  0.01007820  0.57047328     0.12300
H2329       H  0.38797376  0.51167661  0.68133267     0.12400
C2330       C  0.43753541  0.52535923  0.64769321     0.61900
F2331       F  0.31523488  0.53090061  0.57310267    -0.23300
F2332       F  0.30319516  0.54678861  0.62032619    -0.20600
F2333       F  0.29502095  0.99680350  0.60600661    -0.20300
F2334       F  0.44600334  0.55187823  0.63260853    -0.20300
F2335       F  0.45991900  0.00242913  0.64377739    -0.20700
F2336       F  0.43735254  0.03010160  0.67963192    -0.23300
C2337       C  0.01764820  0.64906901  0.87438831    -0.06200
C2338       C  0.99867697  0.64524500  0.84881714    -0.00300
C2339       C  0.48131535  0.61884893  0.84592713    -0.08800
C2340       C  0.48302918  0.59693197  0.86970551    -0.06200
C2341       C  0.00180157  0.60010029  0.89546859    -0.00300
C2342       C  0.02025159  0.62664824  0.89737334    -0.08700
C2343       C  0.04390125  0.63080909  0.92250446     0.61600
H2344       H  0.03119383  0.66967139  0.87581781     0.12300
H2345       H  0.46953247  0.57630862  0.86835635     0.12400
C2346       C  0.46115397  0.61262147  0.81816640     0.61900
F2347       F  0.06318187  0.65499731  0.91622889    -0.23300
F2348       F  0.06146074  0.60464272  0.92489798    -0.20600
F2349       F  0.02989401  0.63670957  0.95035624    -0.20300
F2350       F  0.47898948  0.60667445  0.79263904    -0.20300
F2351       F  0.44277094  0.63760157  0.81229063    -0.20700
F2352       F  0.44252177  0.58757695  0.82277007    -0.23300
C2353       C  0.01698726  0.89847756  0.87617675    -0.06200
C2354       C  0.99743119  0.89456086  0.90135759    -0.00300
C2355       C  0.47944614  0.86808712  0.90131636    -0.08800
C2356       C  0.48154559  0.84691101  0.87696864    -0.06200
C2357       C  0.00063803  0.85035069  0.85368552    -0.00300
C2358       C  0.01970276  0.87639846  0.85283321    -0.08700
C2359       C  0.04375745  0.88045103  0.82821143     0.61600
H2360       H  0.03086049  0.91888519  0.87526307     0.12300
H2361       H  0.46815064  0.82617330  0.87752918     0.12400
C2362       C  0.45844505  0.86088476  0.92813966     0.61900
F2363       F  0.06385714  0.90363756  0.83558291    -0.23300
F2364       F  0.03004089  0.88775480  0.80057652    -0.20600
F2365       F  0.06036972  0.85373216  0.82500275    -0.20300
F2366       F  0.43817892  0.88460462  0.93238663    -0.20300
F2367       F  0.47516804  0.85655565  0.95470302    -0.20700
F2368       F  0.44179949  0.83447419  0.92312248    -0.23300
C2369       C  0.98628430  0.86946597  0.59374660    -0.06200
C2370       C  0.98727351  0.90009473  0.60365101    -0.00300
C2371       C  0.48173457  0.90525272  0.63431819    -0.08800
C2372       C  0.48423341  0.88100466  0.65519834    -0.06200
C2373       C  0.98766240  0.85115010  0.64658195    -0.00300
C2374       C  0.98421181  0.84499124  0.61451013    -0.08700
C2375       C  0.97634224  0.81363253  0.60174232     0.61600
H2376       H  0.98668973  0.86450114  0.56933700     0.12300
H2377       H  0.48419539  0.88610727  0.67958897     0.12400
C2378       C  0.47254085  0.93629519  0.64642360     0.61900
F2379       F  0.50205533  0.79469099  0.60211982    -0.23300
F2380       F  0.45318729  0.79882671  0.61719955    -0.20600
F2381       F  0.96770420  0.81487373  0.57108028    -0.20300
F2382       F  0.44906403  0.94748386  0.62848217    -0.20300
F2383       F  0.99793480  0.95700434  0.64658137    -0.20700
F2384       F  0.96392627  0.93555877  0.67791427    -0.23300
C2385       C  0.02704844  0.62975650  0.64389293    -0.06200
C2386       C  0.00301163  0.65090279  0.64415138    -0.00300
C2387       C  0.48078961  0.64992812  0.61957050    -0.08800
C2388       C  0.48175506  0.62564197  0.59846071    -0.06200
C2389       C  0.00492327  0.60386128  0.59993210    -0.00300
C2390       C  0.02893575  0.60677718  0.62128286    -0.08700
C2391       C  0.05658910  0.58612793  0.61963985     0.61600
H2392       H  0.04455755  0.63161128  0.66131629     0.12300
H2393       H  0.46450229  0.62359932  0.58080403     0.12400
C2394       C  0.45692277  0.67475949  0.61561018     0.61900
F2395       F  0.08003816  0.59690382  0.63779667    -0.23300
F2396       F  0.06714116  0.58435941  0.58965235    -0.20600
F2397       F  0.04886842  0.55724957  0.62963964    -0.20300
F2398       F  0.47100968  0.70208584  0.60851668    -0.20300
F2399       F  0.44028325  0.67814695  0.64234574    -0.20700
F2400       F  0.43692455  0.66816363  0.59192371    -0.23300
O2401       O  0.50481902  0.05131914  0.08628449    -0.86900
O2402       O  0.50235281  0.04817999  0.41108027    -0.87100
O2403       O  0.55527969  0.08404764  0.99900932    -0.88700
O2404       O  0.95461141  0.08991021  0.99836142    -0.87500
O2405       O  0.91639748  0.05438048  0.99856250    -0.87100
O2406       O  0.59047181  0.04546402  0.00128943    -0.88400
O2407       O  0.50344644  0.08555265  0.44808654    -0.86900
O2408       O  0.50507446  0.08788397  0.04822918    -0.86500
Zr2409     Zr  0.50403703  0.06186999  0.99883327     2.84300
O2410       O  0.97171323  0.03179366  0.46837111    -1.08500
O2411       O  0.53321698  0.03029887  0.03102771    -1.09200
C2412       C  0.50556397  0.07928033  0.07664619     1.06200
C2413       C  0.50300028  0.07649814  0.41981331     1.06200
C2414       C  0.58299452  0.07406457  0.00013390     1.09100
C2415       C  0.92624507  0.08222171  0.99816677     1.06900
H2416       H  0.54691290  0.04096829  0.45568642     0.32500
O2417       O  0.53364046  0.02903897  0.46863574    -1.29400
H2418       H  0.95966589  0.04756371  0.04313794     0.32200
O2419       O  0.97148497  0.03370612  0.03064456    -1.31100
O2420       O  0.49929683  0.44774936  0.41437706    -0.86900
O2421       O  0.49414928  0.45156053  0.08737193    -0.88400
O2422       O  0.58819572  0.99512780  0.45170374    -0.87000
O2423       O  0.91564216  0.00375404  0.44943789    -0.87000
O2424       O  0.91466960  0.00782025  0.05075144    -0.86700
O2425       O  0.58675210  0.99492655  0.05135368    -0.86500
O2426       O  0.54691645  0.41132316  0.00220789    -0.86900
O2427       O  0.94734368  0.41531036  0.00225020    -0.86400
O2428       O  0.58485757  0.44700448  0.00059044    -0.87400
O2429       O  0.91175899  0.45372961  0.00133928    -0.86600
O2430       O  0.55187444  0.99601139  0.41389219    -0.87000
O2431       O  0.55002231  0.99752122  0.08828225    -0.86700
O2432       O  0.95174318  0.00744092  0.08734310    -0.86400
O2433       O  0.95239898  0.00089094  0.41256051    -0.86800
O2434       O  0.49660527  0.41153625  0.45241038    -0.87100
O2435       O  0.49159184  0.41439523  0.05057844    -0.88400
Zr2436     Zr  0.50168197  0.99889946  0.43799103     2.83100
Zr2437     Zr  0.50118319  0.00096972  0.06214551     2.83500
Zr2438     Zr  0.56238688  0.99709049  0.00094662     2.84100
Zr2439     Zr  0.93934417  0.00352421  0.00025546     2.83400
Zr2440     Zr  0.49812217  0.43862522  0.00105213     2.84200
O2441       O  0.96826075  0.47113331  0.03205073    -1.09000
O2442       O  0.53058501  0.46743317  0.46982908    -1.08500
C2443       C  0.49747036  0.41970299  0.42395888     1.06200
C2444       C  0.49052152  0.42348084  0.07879300     1.08800
C2445       C  0.57974490  0.99492478  0.42331051     1.06400
C2446       C  0.92445009  0.00253998  0.42102295     1.06700
C2447       C  0.92376672  0.00921515  0.07911422     1.06300
C2448       C  0.57797219  0.99553160  0.07977491     1.05900
C2449       C  0.57521714  0.41912782  0.00133902     1.06300
C2450       C  0.91966511  0.42520947  0.00199157     1.05800
H2451       H  0.54197886  0.45472687  0.04548381     0.32500
O2452       O  0.53025550  0.46800681  0.03224903    -1.30100
H2453       H  0.95557261  0.45748456  0.45682424     0.32500
O2454       O  0.96861714  0.46993109  0.46945453    -1.31400
O2455       O  0.50167929  0.20191626  0.16081778    -0.86900
O2456       O  0.49874074  0.19877215  0.33534321    -0.87100
O2457       O  0.55079737  0.16411143  0.24832927    -0.88700
O2458       O  0.95166465  0.16243400  0.24658201    -0.87500
O2459       O  0.91505033  0.19963428  0.24972319    -0.87100
O2460       O  0.58656025  0.20194601  0.24855137    -0.88400
O2461       O  0.49972968  0.16239659  0.29732272    -0.86900
O2462       O  0.50253069  0.16411209  0.19738737    -0.86500
Zr2463     Zr  0.50074408  0.18846290  0.24831624     2.84300
O2464       O  0.96965948  0.21852972  0.28013449    -1.08500
O2465       O  0.53117257  0.21985374  0.21797614    -1.09200
C2466       C  0.50236733  0.17369786  0.16917926     1.06200
C2467       C  0.49868723  0.17068352  0.32572218     1.06200
C2468       C  0.57859775  0.17362141  0.24839867     1.09100
C2469       C  0.92369855  0.17136717  0.24769425     1.06900
H2470       H  0.54377255  0.20647245  0.29328042     0.32500
O2471       O  0.53094551  0.21914221  0.28043316    -1.29400
H2472       H  0.95700447  0.20635727  0.20572653     0.32200
O2473       O  0.96928201  0.21938071  0.21854269    -1.31100
O2474       O  0.49982842  0.29969113  0.33649156    -0.86900
O2475       O  0.49440774  0.29877738  0.16128191    -0.88400
O2476       O  0.58540006  0.25301305  0.30034446    -0.87000
O2477       O  0.91369616  0.24959355  0.30051103    -0.87000
O2478       O  0.91304920  0.24847488  0.20123683    -0.86700
O2479       O  0.58620700  0.25026292  0.19967564    -0.86500
O2480       O  0.54974490  0.33770034  0.24638098    -0.86900
O2481       O  0.94978569  0.33787987  0.24926823    -0.86400
O2482       O  0.58593556  0.30036701  0.24932811    -0.87400
O2483       O  0.91320607  0.30054499  0.24806192    -0.86600
O2484       O  0.54872242  0.25126202  0.33731684    -0.87000
O2485       O  0.54941008  0.24974147  0.16253221    -0.86700
O2486       O  0.94964981  0.24600262  0.16412839    -0.86400
O2487       O  0.95064295  0.24780904  0.33777254    -0.86000
O2488       O  0.50056241  0.33716127  0.29941356    -0.87100
O2489       O  0.49319573  0.33582350  0.19828558    -0.88400
Zr2490     Zr  0.49965365  0.24970239  0.31143382     2.83100
Zr2491     Zr  0.49973822  0.25036640  0.18757961     2.83500
Zr2492     Zr  0.56086120  0.25106675  0.24964564     2.84100
Zr2493     Zr  0.93866818  0.25026482  0.25030974     2.83400
Zr2494     Zr  0.49952146  0.31258073  0.24909299     2.84200
O2495       O  0.96900409  0.28115897  0.21904894    -1.09000
O2496       O  0.52976870  0.28145309  0.28056709    -1.08500
C2497       C  0.50054731  0.32794685  0.32766510     1.06200
C2498       C  0.49147220  0.32674775  0.16994467     1.08800
C2499       C  0.57671076  0.25283490  0.32886804     1.06400
C2500       C  0.92270501  0.24826398  0.32879274     1.06700
C2501       C  0.92163991  0.24570685  0.17309840     1.06300
C2502       C  0.57742886  0.24990252  0.17125778     1.05900
C2503       C  0.57784196  0.32857299  0.24722116     1.06300
C2504       C  0.92181853  0.32889793  0.24797655     1.05800
H2505       H  0.54276018  0.29461699  0.20473832     0.32500
O2506       O  0.53048009  0.28198105  0.21788978    -1.30100
H2507       H  0.95642535  0.29401692  0.29408727     0.32500
O2508       O  0.96913713  0.28142484  0.28114637    -1.31400
O2509       O  0.83668936  0.50652431  0.20099690    -0.86900
O2510       O  0.66484304  0.50040369  0.20016387    -0.87100
O2511       O  0.75458899  0.44979068  0.16465216    -0.88700
O2512       O  0.75029929  0.05101027  0.16380301    -0.87500
O2513       O  0.75047560  0.08844630  0.20099447    -0.87100
O2514       O  0.75211212  0.41298911  0.20234393    -0.88400
O2515       O  0.70213674  0.49808260  0.16388307    -0.86900
O2516       O  0.80024128  0.50408917  0.16381875    -0.86500
Zr2517     Zr  0.75115759  0.50048662  0.18904064     2.84300
O2518       O  0.71993773  0.03185995  0.21921378    -1.08500
O2519       O  0.78179030  0.47025233  0.22071333    -1.09200
C2520       C  0.82802886  0.50690628  0.17247122     1.06200
C2521       C  0.67407035  0.49884318  0.17195698     1.06200
C2522       C  0.75402340  0.42164644  0.17398672     1.09100
C2523       C  0.75078421  0.07927192  0.17274989     1.06900
H2524       H  0.70827328  0.45650167  0.20705419     0.32500
O2525       O  0.72052830  0.46952347  0.21998140    -1.29400
H2526       H  0.79303634  0.04603891  0.20761646     0.32200
O2527       O  0.78062117  0.03289660  0.22023778    -1.31100
O2528       O  0.66425050  0.49962318  0.30039712    -0.86900
O2529       O  0.83567609  0.50539140  0.30149456    -0.88400
O2530       O  0.70068255  0.41378397  0.25107975    -0.87000
O2531       O  0.69923900  0.08763095  0.24736230    -0.87000
O2532       O  0.79817236  0.08964383  0.25127805    -0.86700
O2533       O  0.80147759  0.41504804  0.25045994    -0.86500
O2534       O  0.74927785  0.45225110  0.33924388    -0.86900
O2535       O  0.74860793  0.05094505  0.33887174    -0.86400
O2536       O  0.75027499  0.41449036  0.30235955    -0.87400
O2537       O  0.74795632  0.08811442  0.30137676    -0.86600
O2538       O  0.66469312  0.45132438  0.24880355    -0.87000
O2539       O  0.83732355  0.45312747  0.24989706    -0.86700
O2540       O  0.83551389  0.05312575  0.25167809    -0.86400
O2541       O  0.66318262  0.05009938  0.24750929    -0.86800
O2542       O  0.70020069  0.50029450  0.33851366    -0.87100
O2543       O  0.79886391  0.50323946  0.33838774    -0.88400
Zr2544     Zr  0.68934388  0.50079443  0.25033067     2.83100
Zr2545     Zr  0.81142389  0.50274288  0.25121945     2.83500
Zr2546     Zr  0.75097216  0.43906762  0.25182678     2.84100
Zr2547     Zr  0.74920799  0.06338701  0.25099321     2.83400
Zr2548     Zr  0.74954282  0.50175112  0.31310942     2.84200
O2549       O  0.78006023  0.03291506  0.28241801    -1.09000
O2550       O  0.71956971  0.47012089  0.28216896    -1.08500
C2551       C  0.67244680  0.49968039  0.32893405     1.06200
C2552       C  0.82682490  0.50489142  0.32987880     1.08800
C2553       C  0.67264379  0.42302046  0.24974655     1.06400
C2554       C  0.67136152  0.07839951  0.24637472     1.06700
C2555       C  0.82629971  0.08126608  0.25139924     1.06300
C2556       C  0.82927935  0.42467618  0.24994707     1.05900
C2557       C  0.74964858  0.42397975  0.33054579     1.06300
C2558       C  0.74800623  0.07903496  0.32968803     1.05800
H2559       H  0.79413671  0.45871716  0.29556766     0.32500
O2560       O  0.78126663  0.47106574  0.28256817    -1.30100
H2561       H  0.70542138  0.04494971  0.29455599     0.32500
O2562       O  0.71858456  0.03239083  0.28200747    -1.31400
O2563       O  0.70201107  0.16325074  0.50007934    -0.86900
O2564       O  0.70119380  0.33784059  0.50232001    -0.87100
O2565       O  0.66583509  0.24875989  0.05157011    -0.88700
O2566       O  0.66537899  0.25186031  0.44975551    -0.87500
O2567       O  0.70227400  0.25336337  0.41293574    -0.87100
O2568       O  0.70277550  0.24813877  0.08867665    -0.88400
O2569       O  0.66474573  0.30052877  0.50150203    -0.86900
O2570       O  0.66495917  0.20004553  0.50054418    -0.86500
Zr2571     Zr  0.68979778  0.25032944  0.50061435     2.84300
O2572       O  0.72058088  0.28205251  0.47050461    -1.08500
O2573       O  0.72085802  0.21890342  0.03099285    -1.09200
C2574       C  0.67386927  0.17180716  0.50082355     1.06200
C2575       C  0.67323321  0.32889837  0.50216203     1.06200
C2576       C  0.67475403  0.24804973  0.08000808     1.09100
C2577       C  0.67424520  0.25293604  0.42128291     1.06900
H2578       H  0.70787943  0.29290977  0.04587001     0.32500
O2579       O  0.72049429  0.28058385  0.03262811    -1.29400
H2580       H  0.70795656  0.20774807  0.45543107     0.32200
O2581       O  0.72057391  0.22025982  0.46853069    -1.31100
O2582       O  0.80022460  0.33808777  0.50443797    -0.86900
O2583       O  0.80131566  0.16371593  0.49917114    -0.88400
O2584       O  0.75201729  0.29779323  0.08987099    -0.87000
O2585       O  0.75029987  0.30283483  0.41453685    -0.87000
O2586       O  0.75166415  0.20277795  0.41185967    -0.86700
O2587       O  0.75160370  0.19848144  0.08649148    -0.86500
O2588       O  0.83789480  0.24688252  0.04882367    -0.86900
O2589       O  0.83788533  0.25125588  0.44978981    -0.86400
O2590       O  0.80210349  0.24595771  0.08670852    -0.87400
O2591       O  0.80081748  0.25220181  0.41261944    -0.86600
O2592       O  0.75136896  0.33599842  0.05356359    -0.87000
O2593       O  0.75087673  0.16219908  0.04824908    -0.86700
O2594       O  0.75190906  0.16485879  0.44858156    -0.86400
O2595       O  0.74996917  0.33913876  0.45292273    -0.86800
O2596       O  0.83756727  0.30132309  0.50368730    -0.87100
O2597       O  0.83771989  0.20118062  0.49818830    -0.88400
Zr2598     Zr  0.75091469  0.31258484  0.50236492     2.83100
Zr2599     Zr  0.75148511  0.18880667  0.49901986     2.83500
Zr2600     Zr  0.75186986  0.24898571  0.06261296     2.84100
Zr2601     Zr  0.75140692  0.25219640  0.43835775     2.83400
Zr2602     Zr  0.81261037  0.25112012  0.49975997     2.84200
O2603       O  0.78211905  0.22038897  0.46838262    -1.09000
O2604       O  0.78220766  0.28106619  0.03234240    -1.08500
C2605       C  0.82830952  0.32945981  0.50511417     1.06200
C2606       C  0.82921961  0.17287824  0.49886785     1.08800
C2607       C  0.75162017  0.32618033  0.08166226     1.06400
C2608       C  0.74971710  0.33073948  0.42439265     1.06700
C2609       C  0.75192374  0.17448233  0.42051762     1.06300
C2610       C  0.75094729  0.17055460  0.07675102     1.05900
C2611       C  0.82996282  0.24501441  0.07719671     1.06300
C2612       C  0.82880469  0.25168443  0.42151564     1.05800
H2613       H  0.79493671  0.20589140  0.04257889     0.32500
O2614       O  0.78232737  0.21914475  0.03029459    -1.30100
H2615       H  0.79453479  0.29628746  0.45725932     0.32500
O2616       O  0.78191483  0.28307021  0.46978344    -1.31400
C2617       C  0.72801373  0.10321079  0.12680025    -0.06200
C2618       C  0.75148656  0.10303884  0.14856522    -0.00300
C2619       C  0.77500892  0.12503209  0.14654910    -0.08800
C2620       C  0.77415174  0.14643212  0.12236197    -0.06200
C2621       C  0.75078601  0.14632148  0.10038658    -0.00300
C2622       C  0.72726205  0.12436283  0.10243489    -0.08700
C2623       C  0.70111100  0.12358098  0.07956604     0.61600
H2624       H  0.70984536  0.08691441  0.12947034     0.12300
H2625       H  0.79173546  0.16361900  0.12044425     0.12400
C2626       C  0.80081302  0.12600171  0.16976248     0.61900
F2627       F  0.67919510  0.10249938  0.08792220    -0.23300
F2628       F  0.71174751  0.11566331  0.05071179    -0.20600
F2629       F  0.68734877  0.15191943  0.07790578    -0.20300
F2630       F  0.81448599  0.09756756  0.17187869    -0.20300
F2631       F  0.78965341  0.13434183  0.19830186    -0.20700
F2632       F  0.82286334  0.14698861  0.16154545    -0.23300
C2633       C  0.77621362  0.37042784  0.10647536    -0.06200
C2634       C  0.75210227  0.34954704  0.10630511    -0.00300
C2635       C  0.72911919  0.35175600  0.12904796    -0.08800
C2636       C  0.73063516  0.37576294  0.15066043    -0.06200
C2637       C  0.75446237  0.39706658  0.15044279    -0.00300
C2638       C  0.77827451  0.39371930  0.12876458    -0.08700
C2639       C  0.80628877  0.41375705  0.12991066     0.61600
H2640       H  0.79376651  0.36799201  0.08916624     0.12300
H2641       H  0.71309741  0.37816445  0.16798551     0.12400
C2642       C  0.70298819  0.32915286  0.13034808     0.61900
F2643       F  0.82830461  0.40411774  0.10930107    -0.23300
F2644       F  0.81871164  0.41305605  0.15915565    -0.20600
F2645       F  0.79854943  0.44340160  0.12260930    -0.20300
F2646       F  0.71384710  0.30055396  0.13830093    -0.20300
F2647       F  0.68882441  0.32738728  0.10200701    -0.20700
F2648       F  0.68140307  0.33761938  0.15191030    -0.23300
C2649       C  0.72226582  0.38967223  0.36645410    -0.06200
C2650       C  0.74997774  0.40049320  0.35492624    -0.00300
C2651       C  0.77757962  0.38893472  0.36678859    -0.08800
C2652       C  0.77663296  0.36634880  0.38983198    -0.06200
C2653       C  0.74897974  0.35511270  0.40097313    -0.00300
C2654       C  0.72131886  0.36700580  0.38951563    -0.08700
C2655       C  0.69113082  0.35574667  0.40186857     0.61600
H2656       H  0.70142093  0.39908267  0.35719494     0.12300
H2657       H  0.79747689  0.35725080  0.39932213     0.12400
C2658       C  0.80774379  0.40055143  0.35484162     0.61900
F2659       F  0.66685293  0.37026326  0.38784855    -0.23300
F2660       F  0.68949876  0.36131943  0.43318530    -0.20600
F2661       F  0.68845964  0.32464708  0.39670812    -0.20300
F2662       F  0.80969734  0.43177875  0.35953809    -0.20300
F2663       F  0.80998863  0.39439215  0.32367660    -0.20700
F2664       F  0.83204277  0.38689009  0.36959075    -0.23300
C2665       C  0.77626155  0.11212520  0.36530622    -0.06200
C2666       C  0.74815322  0.10296817  0.35346549    -0.00300
C2667       C  0.72120230  0.11747906  0.36352025    -0.08800
C2668       C  0.72340059  0.14144712  0.38500289    -0.06200
C2669       C  0.75158304  0.15084480  0.39650475    -0.00300
C2670       C  0.77848792  0.13616892  0.38664559    -0.08700
C2671       C  0.80928464  0.14619055  0.39847399     0.61600
H2672       H  0.79648696  0.10030058  0.35760559     0.12300
H2673       H  0.70311373  0.15272891  0.39341058     0.12400
C2674       C  0.69038308  0.10702029  0.35220639     0.61900
F2675       F  0.83269386  0.12975406  0.38504081    -0.23300
F2676       F  0.81076945  0.14195971  0.42998772    -0.20600
F2677       F  0.81355873  0.17681242  0.39184869    -0.20300
F2678       F  0.68582555  0.07689573  0.36071156    -0.20300
F2679       F  0.68907039  0.10926356  0.32052847    -0.20700
F2680       F  0.66705978  0.12450895  0.36440140    -0.23300
C2681       C  0.87282366  0.15418539  0.26455084    -0.06200
C2682       C  0.89919072  0.14776405  0.24749644    -0.00300
C2683       C  0.90059841  0.12006221  0.23035854    -0.08800
C2684       C  0.87626203  0.09927284  0.23247892    -0.06200
C2685       C  0.85018765  0.10545420  0.25007629    -0.00300
C2686       C  0.84813602  0.13384238  0.26591664    -0.08700
C2687       C  0.82054600  0.14264425  0.28490100     0.61600
H2688       H  0.87171493  0.17555332  0.27711421     0.12300
H2689       H  0.87731164  0.07783847  0.21999072     0.12400
C2690       C  0.92683819  0.11259362  0.20895012     0.61900
F2691       F  0.82508425  0.16939604  0.30136642    -0.23300
F2692       F  0.81417755  0.11968535  0.30571773    -0.20600
F2693       F  0.79588054  0.14719083  0.26576475    -0.20300
F2694       F  0.95259271  0.10610673  0.22590341    -0.20300
F2695       F  0.93236533  0.13702680  0.18959670    -0.20700
F2696       F  0.92058283  0.08749870  0.19062294    -0.23300
C2697       C  0.85213735  0.37770940  0.22707635    -0.06200
C2698       C  0.85383906  0.40107777  0.24921959    -0.00300
C2699       C  0.87875060  0.40132580  0.26996306    -0.08800
C2700       C  0.89982283  0.37695261  0.26918961    -0.06200
C2701       C  0.89793433  0.35331898  0.24733958    -0.00300
C2702       C  0.87450514  0.35459413  0.22487233    -0.08700
C2703       C  0.87406658  0.33286932  0.19765253     0.61600
H2704       H  0.83350644  0.37825215  0.21081932     0.12300
H2705       H  0.91842771  0.37641113  0.28547345     0.12400
C2706       C  0.88359914  0.42747919  0.29240458     0.61900
F2707       F  0.85168707  0.34043281  0.17657039    -0.23300
F2708       F  0.86864085  0.30356848  0.20777433    -0.20600
F2709       F  0.90173158  0.33376181  0.18261458    -0.20300
F2710       F  0.85758272  0.43272278  0.30937402    -0.20300
F2711       F  0.89099428  0.45360529  0.27613241    -0.20700
F2712       F  0.90695721  0.42142921  0.31282263    -0.23300
C2713       C  0.65349561  0.13055458  0.25962499    -0.06200
C2714       C  0.64718446  0.10246610  0.24520508    -0.00300
C2715       C  0.61843965  0.09849733  0.23073088    -0.08800
C2716       C  0.59711662  0.12251496  0.23222561    -0.06200
C2717       C  0.60313424  0.15011019  0.24763272    -0.00300
C2718       C  0.63194558  0.15423348  0.26178536    -0.08700
C2719       C  0.63979463  0.18258095  0.28056825     0.61600
H2720       H  0.67559287  0.13371234  0.26992477     0.12300
H2721       H  0.57525805  0.11989629  0.22116873     0.12400
C2722       C  0.61019861  0.06979120  0.21277315     0.61900
F2723       F  0.66730513  0.17951174  0.29565060    -0.23300
F2724       F  0.61771179  0.18745098  0.30268776    -0.20600
F2725       F  0.64192888  0.20791127  0.26161783    -0.20300
F2726       F  0.60775146  0.04511973  0.23248021    -0.20300
F2727       F  0.63214671  0.06393696  0.19077154    -0.20700
F2728       F  0.58263479  0.07276277  0.19774736    -0.23300
C2729       C  0.59508522  0.38233224  0.25458259    -0.06200
C2730       C  0.60267582  0.35222132  0.24636518    -0.00300
C2731       C  0.63346570  0.34578100  0.23812757    -0.08800
C2732       C  0.65512041  0.36955610  0.23953993    -0.06200
C2733       C  0.64763816  0.39951611  0.24867444    -0.00300
C2734       C  0.61667116  0.40604820  0.25617306    -0.08700
C2735       C  0.60582469  0.43754254  0.26657662     0.61600
H2736       H  0.57171936  0.38722342  0.26024020     0.12300
H2737       H  0.67844722  0.36476478  0.23341146     0.12400
C2738       C  0.64397193  0.31428324  0.22738847     0.61900
F2739       F  0.57570017  0.43747411  0.27558087    -0.23300
F2740       F  0.60839802  0.45825912  0.24264086    -0.20600
F2741       F  0.62276215  0.44719277  0.29156499    -0.20300
F2742       F  0.62573006  0.30416330  0.20355594    -0.20300
F2743       F  0.64290182  0.29378448  0.25163552    -0.20700
F2744       F  0.67352990  0.31461441  0.21660577    -0.23300
C2745       C  0.90681239  0.24428333  0.11813387    -0.06200
C2746       C  0.89779201  0.24206164  0.14905914    -0.00300
C2747       C  0.86692106  0.23507347  0.15560948    -0.08800
C2748       C  0.84574019  0.23690775  0.13151569    -0.06200
C2749       C  0.85451435  0.24167241  0.10071518    -0.00300
C2750       C  0.88616840  0.24224828  0.09367049    -0.08700
C2751       C  0.89900987  0.23877036  0.06118371     0.61600
H2752       H  0.93061491  0.24696700  0.11297120     0.12300
H2753       H  0.82193267  0.23395507  0.13678694     0.12400
C2754       C  0.85620128  0.22335403  0.18684166     0.61900
F2755       F  0.93035296  0.23622033  0.06115659    -0.23300
F2756       F  0.89169044  0.26370276  0.04316130    -0.20600
F2757       F  0.88763188  0.21240588  0.04791366    -0.20300
F2758       F  0.85564231  0.24663487  0.20828526    -0.20300
F2759       F  0.87528836  0.20027002  0.19685872    -0.20700
F2760       F  0.82723267  0.21125960  0.18531783    -0.23300
C2761       C  0.62911919  0.23454765  0.15421743    -0.06200
C2762       C  0.60164605  0.24935909  0.14710949    -0.00300
C2763       C  0.59853193  0.26358476  0.11783027    -0.08800
C2764       C  0.62317908  0.26290490  0.09723826    -0.06200
C2765       C  0.65061723  0.24803350  0.10424756    -0.00300
C2766       C  0.65355603  0.23319816  0.13329414    -0.08700
C2767       C  0.68167189  0.21502910  0.14216478     0.61600
H2768       H  0.63121766  0.22355991  0.17646388     0.12300
H2769       H  0.62104698  0.27400878  0.07506187     0.12400
C2770       C  0.56937569  0.27919064  0.10782262     0.61900
F2771       F  0.67744756  0.19848707  0.16901917    -0.23300
F2772       F  0.70588659  0.23453365  0.14674307    -0.20600
F2773       F  0.68868993  0.19446610  0.11914146    -0.20300
F2774       F  0.56029132  0.30023210  0.12981070    -0.20300
F2775       F  0.54717515  0.25724456  0.10375645    -0.20700
F2776       F  0.57264841  0.29469983  0.08022780    -0.23300
C2777       C  0.63128294  0.24984949  0.34383586    -0.06200
C2778       C  0.60100435  0.25405014  0.35335307    -0.00300
C2779       C  0.59535003  0.25892832  0.38539164    -0.08800
C2780       C  0.62009347  0.25923395  0.40599065    -0.06200
C2781       C  0.65020323  0.25384832  0.39660767    -0.00300
C2782       C  0.65590075  0.24905155  0.36456579    -0.08700
C2783       C  0.68733058  0.24197645  0.35166248     0.61600
H2784       H  0.63567610  0.24638705  0.31959600     0.12300
H2785       H  0.61583977  0.26338216  0.43015944     0.12400
C2786       C  0.56366105  0.26375187  0.39857475     0.61900
F2787       F  0.68681739  0.23673641  0.32021564    -0.23300
F2788       F  0.69874496  0.21587970  0.36551108    -0.20600
F2789       F  0.70667142  0.26636151  0.35664872    -0.20300
F2790       F  0.54627489  0.23786897  0.39381861    -0.20300
F2791       F  0.55012810  0.28882467  0.38477896    -0.20700
F2792       F  0.56409753  0.26907918  0.43001478    -0.23300
C2793       C  0.88170885  0.27496915  0.35647467    -0.06200
C2794       C  0.89895748  0.24828358  0.35277315    -0.00300
C2795       C  0.89259567  0.22229343  0.37108766    -0.08800
C2796       C  0.86981659  0.22445303  0.39376947    -0.06200
C2797       C  0.85249519  0.25119642  0.39742816    -0.00300
C2798       C  0.85832685  0.27684327  0.37845785    -0.08700
C2799       C  0.84018148  0.30614911  0.38163560     0.61600
H2800       H  0.88671414  0.29436417  0.34181265     0.12300
H2801       H  0.86504511  0.20509946  0.40856209     0.12400
C2802       C  0.90896986  0.19220309  0.36575425     0.61900
F2803       F  0.85147953  0.32903143  0.36287932    -0.23300
F2804       F  0.84124216  0.31636909  0.41177730    -0.20600
F2805       F  0.81036637  0.30086367  0.37335565    -0.20300
F2806       F  0.93928230  0.19522369  0.37331236    -0.20300
F2807       F  0.90648757  0.18391060  0.33512059    -0.20700
F2808       F  0.89676492  0.16882762  0.38327392    -0.23300
C2809       C  0.89643440  0.37964167  0.02636693    -0.06200
C2810       C  0.89527864  0.40173881  0.00293615    -0.00300
C2811       C  0.87169494  0.40029208  0.48084726    -0.08800
C2812       C  0.85033740  0.37636654  0.48281326    -0.06200
C2813       C  0.85145035  0.35418584  0.00617798    -0.00300
C2814       C  0.87438350  0.35650289  0.02912239    -0.08700
C2815       C  0.87631765  0.33658172  0.05769393     0.61600
H2816       H  0.91435764  0.38107275  0.04344397     0.12300
H2817       H  0.83238682  0.37474764  0.46584320     0.12400
C2818       C  0.86901054  0.42359146  0.45502373     0.61900
F2819       F  0.87652891  0.35495802  0.58359514    -0.23300
F2820       F  0.90330834  0.32022867  0.55698947    -0.20600
F2821       F  0.85245613  0.31637649  0.06059793    -0.20300
F2822       F  0.89672942  0.42778453  0.44078484    -0.20300
F2823       F  0.85901310  0.45121842  0.96691384    -0.20700
F2824       F  0.84851240  0.41429511  0.93268900    -0.23300
C2825       C  0.87851741  0.15325999  0.97921838    -0.06200
C2826       C  0.85374549  0.14938772  0.99921942    -0.00300
C2827       C  0.85386248  0.12435566  0.52018156    -0.08800
C2828       C  0.87811074  0.10327823  0.51902624    -0.06200
C2829       C  0.90266979  0.10682640  0.99853277    -0.00300
C2830       C  0.90315028  0.13256184  0.97856152    -0.08700
C2831       C  0.92884809  0.13777553  0.95585574     0.61600
H2832       H  0.87824605  0.17271522  0.96377937     0.12300
H2833       H  0.87814716  0.08373416  0.53436792     0.12400
C2834       C  0.82924568  0.12046819  0.54440891     0.61900
F2835       F  0.92384018  0.16337084  0.43791179    -0.23300
F2836       F  0.93186808  0.11276480  0.43686552    -0.20600
F2837       F  0.95576044  0.14244409  0.97146197    -0.20300
F2838       F  0.80244305  0.11155535  0.53054470    -0.20300
F2839       F  0.82482020  0.14790971  0.05989149    -0.20700
F2840       F  0.83704346  0.09867534  0.06600793    -0.23300
C2841       C  0.62617685  0.40148383  0.01760934    -0.06200
C2842       C  0.59907163  0.39478187  0.00195720    -0.00300
C2843       C  0.59664279  0.36648648  0.48598372    -0.08800
C2844       C  0.62140406  0.34593840  0.48679345    -0.06200
C2845       C  0.64864163  0.35270262  0.00244473    -0.00300
C2846       C  0.65108143  0.38124990  0.01808170    -0.08700
C2847       C  0.67957660  0.39094428  0.03523124     0.61600
H2848       H  0.62786470  0.42325541  0.02939005     0.12300
H2849       H  0.61977903  0.32433324  0.47470845     0.12400
C2850       C  0.56865250  0.35829085  0.46728281     0.61900
F2851       F  0.67459098  0.41659785  0.55331528    -0.23300
F2852       F  0.70221192  0.39753311  0.51451715    -0.20600
F2853       F  0.68913565  0.36789400  0.05469613    -0.20300
F2854       F  0.56255988  0.38122564  0.44620778    -0.20300
F2855       F  0.54395038  0.35449578  0.98714442    -0.20700
F2856       F  0.57228378  0.33105235  0.95159900    -0.23300
C2857       C  0.60140919  0.12526065  0.01640511    -0.06200
C2858       C  0.60765354  0.09773350  0.00084138    -0.00300
C2859       C  0.63623091  0.09443975  0.48591558    -0.08800
C2860       C  0.65687624  0.11916680  0.48661447    -0.06200
C2861       C  0.65028879  0.14701069  0.00157632    -0.00300
C2862       C  0.62212544  0.14981030  0.01738318    -0.08700
C2863       C  0.61374283  0.17817494  0.03581785     0.61600
H2864       H  0.57976594  0.12746375  0.02800175     0.12300
H2865       H  0.67850902  0.11700592  0.47500379     0.12400
C2866       C  0.64498632  0.06549131  0.46855435     0.61900
F2867       F  0.58813635  0.17358450  0.05370514    -0.23300
F2868       F  0.60788247  0.20226971  0.51602146    -0.20600
F2869       F  0.63719127  0.18592961  0.05545226    -0.20300
F2870       F  0.62296612  0.05853045  0.44698472    -0.20300
F2871       F  0.64823659  0.04141673  0.98911374    -0.20700
F2872       F  0.67228482  0.06869540  0.45308053    -0.23300
C2873       C  0.87029592  0.00883667  0.40643298    -0.06200
C2874       C  0.90028597  0.00312618  0.39669844    -0.00300
C2875       C  0.90531502  0.49682649  0.36530826    -0.08800
C2876       C  0.88072457  0.49803897  0.34474873    -0.06200
C2877       C  0.85097218  0.00428447  0.35413359    -0.00300
C2878       C  0.84554254  0.00959691  0.38601929    -0.08700
C2879       C  0.81419113  0.01667820  0.39902647     0.61600
H2880       H  0.86612720  0.01283059  0.43063384     0.12300
H2881       H  0.88469158  0.49283286  0.32077827     0.12400
C2882       C  0.93627275  0.48749015  0.35271706     0.61900
F2883       F  0.81505698  0.02348318  0.43016285    -0.23300
F2884       F  0.79500905  0.49706784  0.39615811    -0.20600
F2885       F  0.80199934  0.04179599  0.38409356    -0.20300
F2886       F  0.94697498  0.46217778  0.36849735    -0.20300
F2887       F  0.95607488  0.01601695  0.35618107    -0.20700
F2888       F  0.93518045  0.47977044  0.32181546    -0.23300
C2889       C  0.59979778  0.01465765  0.37429575    -0.06200
C2890       C  0.60385192  0.99502394  0.39951095    -0.00300
C2891       C  0.62990744  0.47547826  0.40085943    -0.08800
C2892       C  0.65186768  0.47812567  0.37741571    -0.06200
C2893       C  0.64807034  0.99880664  0.35238847    -0.00300
C2894       C  0.62130503  0.01684657  0.35052854    -0.08700
C2895       C  0.61532271  0.03865393  0.32392687     0.61600
H2896       H  0.57941208  0.02850847  0.37341180     0.12300
H2897       H  0.67206049  0.46396345  0.37808860     0.12400
C2898       C  0.63418262  0.45170573  0.42609403     0.61900
F2899       F  0.59037603  0.05719168  0.32936608    -0.23300
F2900       F  0.61089880  0.52340759  0.29781091    -0.20600
F2901       F  0.64010360  0.05745803  0.31938518    -0.20300
F2902       F  0.60821489  0.43419928  0.42896837    -0.20300
F2903       F  0.64012106  0.96815175  0.45461702    -0.20700
F2904       F  0.65807634  0.43207742  0.41971124    -0.23300
C2905       C  0.62119653  0.98983858  0.15641341    -0.06200
C2906       C  0.65083187  0.99737388  0.14713352    -0.00300
C2907       C  0.65633210  0.50260244  0.11547619    -0.08800
C2908       C  0.63174499  0.50281970  0.09481871    -0.06200
C2909       C  0.60218846  0.99480909  0.10400267    -0.00300
C2910       C  0.59690841  0.98765999  0.13558057    -0.08700
C2911       C  0.56648905  0.97642236  0.14768594     0.61600
H2912       H  0.61708095  0.98512806  0.18050168     0.12300
H2913       H  0.63594568  0.50818773  0.07088850     0.12400
C2914       C  0.68815831  0.50752809  0.10266390     0.61900
F2915       F  0.56775141  0.46612968  0.17714399    -0.23300
F2916       F  0.55722397  0.45171448  0.12898264    -0.20600
F2917       F  0.54503373  0.99942512  0.14600670    -0.20300
F2918       F  0.70570935  0.48174073  0.10783718    -0.20300
F2919       F  0.70021552  0.03436768  0.11642722    -0.20700
F2920       F  0.68781337  0.01427073  0.07103383    -0.23300
C2921       C  0.86930034  0.51233632  0.09480453    -0.06200
C2922       C  0.90019518  0.01257392  0.10392744    -0.00300
C2923       C  0.90692628  0.01540126  0.13600127    -0.08800
C2924       C  0.88300982  0.01216976  0.15733924    -0.06200
C2925       C  0.85234784  0.01153423  0.14821429    -0.00300
C2926       C  0.84531037  0.51445384  0.11606843    -0.08700
C2927       C  0.81407301  0.52350311  0.10394918     0.61600
H2928       H  0.86403048  0.51224945  0.07047308     0.12300
H2929       H  0.88826614  0.01138809  0.18166217     0.12400
C2930       C  0.93791491  0.02533460  0.14815054     0.61900
F2931       F  0.81587823  0.03597089  0.07427391    -0.23300
F2932       F  0.80502530  0.05148931  0.12194649    -0.20600
F2933       F  0.79383014  0.49962423  0.10644061    -0.20300
F2934       F  0.94617733  0.05246647  0.13408370    -0.20300
F2935       F  0.95936934  0.50239138  0.14294150    -0.20700
F2936       F  0.93714769  0.52863989  0.17999422    -0.23300
C2937       C  0.51754508  0.15006090  0.37485078    -0.06200
C2938       C  0.49877518  0.14600466  0.34916702    -0.00300
C2939       C  0.98247157  0.11772683  0.34526788    -0.08800
C2940       C  0.98413060  0.09585865  0.36908460    -0.06200
C2941       C  0.50264490  0.10061110  0.39561544    -0.00300
C2942       C  0.52057843  0.12753020  0.39769677    -0.08700
C2943       C  0.54426636  0.13196513  0.42274755     0.61600
H2944       H  0.53071291  0.17090158  0.37640026     0.12300
H2945       H  0.97131497  0.07484083  0.36729873     0.12400
C2946       C  0.96334527  0.11090996  0.31684431     0.61900
F2947       F  0.56279338  0.15682281  0.41678047    -0.23300
F2948       F  0.56258048  0.10627879  0.42453333    -0.20600
F2949       F  0.53033962  0.13700080  0.45080719    -0.20300
F2950       F  0.98185853  0.10753843  0.29133723    -0.20300
F2951       F  0.94297472  0.13447797  0.31178933    -0.20700
F2952       F  0.94693295  0.08412341  0.31996411    -0.23300
C2953       C  0.51710713  0.39939971  0.37494947    -0.06200
C2954       C  0.49778730  0.39513188  0.40028243    -0.00300
C2955       C  0.97996512  0.36788778  0.40243579    -0.08800
C2956       C  0.98129032  0.34692266  0.37787243    -0.06200
C2957       C  0.50056799  0.35155250  0.35212526    -0.00300
C2958       C  0.51940818  0.37776235  0.35115464    -0.08700
C2959       C  0.54239239  0.38277847  0.32563568     0.61600
H2960       H  0.53090917  0.41986193  0.37411680     0.12300
H2961       H  0.96698025  0.32680781  0.37804988     0.12400
C2962       C  0.95918043  0.36092494  0.42948662     0.61900
F2963       F  0.56277591  0.40571505  0.33299941    -0.23300
F2964       F  0.52744582  0.39110468  0.29893859    -0.20600
F2965       F  0.55890366  0.35628576  0.32057393    -0.20300
F2966       F  0.93951613  0.38505002  0.43431573    -0.20300
F2967       F  0.97626296  0.35597505  0.45571789    -0.20700
F2968       F  0.94191314  0.33492428  0.42449921    -0.23300
C2969       C  0.48380448  0.36859890  0.09290465    -0.06200
C2970       C  0.48552260  0.39927095  0.10265254    -0.00300
C2971       C  0.98191089  0.40516112  0.13492967    -0.08800
C2972       C  0.98443660  0.38087191  0.15576662    -0.06200
C2973       C  0.48624213  0.35058425  0.14583113    -0.00300
C2974       C  0.48214580  0.34421032  0.11389269    -0.08700
C2975       C  0.47468957  0.31258390  0.10151860     0.61600
H2976       H  0.48370268  0.36353460  0.06850775     0.12300
H2977       H  0.98432289  0.38592999  0.18016455     0.12400
C2978       C  0.97237048  0.43606515  0.14707127     0.61900
F2979       F  0.00130292  0.29403942  0.10276117    -0.23300
F2980       F  0.95245930  0.29963822  0.11752191    -0.20600
F2981       F  0.46466012  0.31360854  0.07131323    -0.20300
F2982       F  0.94898560  0.44715713  0.12895165    -0.20300
F2983       F  0.49709109  0.45602340  0.14599237    -0.20700
F2984       F  0.46197875  0.43507469  0.17653748    -0.23300
C2985       C  0.52754623  0.12961230  0.14423525    -0.06200
C2986       C  0.50334272  0.15055811  0.14439973    -0.00300
C2987       C  0.98367727  0.15049973  0.11994595    -0.08800
C2988       C  0.98503616  0.12647207  0.09858123    -0.06200
C2989       C  0.50600814  0.10370020  0.09996448    -0.00300
C2990       C  0.52988440  0.10683473  0.12144682    -0.08700
C2991       C  0.55815900  0.08711063  0.11927490     0.61600
H2992       H  0.54498691  0.13168151  0.16170092     0.12300
H2993       H  0.96810292  0.12471623  0.08058094     0.12400
C2994       C  0.95949580  0.17505943  0.11620552     0.61900
F2995       F  0.58075332  0.09718972  0.13890674    -0.23300
F2996       F  0.56950859  0.08792072  0.08955383    -0.20600
F2997       F  0.55115669  0.05731931  0.12686616    -0.20300
F2998       F  0.97317492  0.20263456  0.10924494    -0.20300
F2999       F  0.94290971  0.17802757  0.14304235    -0.20700
F3000       F  0.93948946  0.16832283  0.09257672    -0.23300
O3001       O  0.50474585  0.05131832  0.58627122    -0.86900
O3002       O  0.50235259  0.04816205  0.91107985    -0.87100
O3003       O  0.55523327  0.08407717  0.49899583    -0.88700
O3004       O  0.95461026  0.08989546  0.49841287    -0.87500
O3005       O  0.91639951  0.05436108  0.49858261    -0.87100
O3006       O  0.59043159  0.04550026  0.50128140    -0.88400
O3007       O  0.50348632  0.08553684  0.94808339    -0.86900
O3008       O  0.50500033  0.08789774  0.54822905    -0.86500
Zr3009     Zr  0.50399689  0.06188075  0.49883761     2.84300
O3010       O  0.97170268  0.03180917  0.96836294    -1.08500
O3011       O  0.53318775  0.03031764  0.53103543    -1.09200
C3012       C  0.50547870  0.07928338  0.57664222     1.06200
C3013       C  0.50301102  0.07648142  0.91981123     1.06200
C3014       C  0.58295007  0.07409857  0.50011455     1.09100
C3015       C  0.92624439  0.08220337  0.49821485     1.06900
H3016       H  0.54695267  0.04093878  0.95567743     0.32500
O3017       O  0.53367642  0.02901742  0.96863023    -1.29400
H3018       H  0.95965657  0.04753788  0.54315342     0.32200
O3019       O  0.97147717  0.03368391  0.53065818    -1.31100
O3020       O  0.49931022  0.44772747  0.91438901    -0.86900
O3021       O  0.49414033  0.45156010  0.58736044    -0.88400
O3022       O  0.58821680  0.99503684  0.95169675    -0.87000
O3023       O  0.91561963  0.00375008  0.94946354    -0.87000
O3024       O  0.91466541  0.00777568  0.55075269    -0.86700
O3025       O  0.58672278  0.99492897  0.55135730    -0.86500
O3026       O  0.54691884  0.41130534  0.50214188    -0.86900
O3027       O  0.94739331  0.41530846  0.50225942    -0.86400
O3028       O  0.58485676  0.44699561  0.50054919    -0.87400
O3029       O  0.91180737  0.45372547  0.50135561    -0.86600
O3030       O  0.55188558  0.99593277  0.91389623    -0.87000
O3031       O  0.54999427  0.99748579  0.58828790    -0.86700
O3032       O  0.95173469  0.00740543  0.58734948    -0.86400
O3033       O  0.95237716  0.00091622  0.91258710    -0.86800
O3034       O  0.49662680  0.41152356  0.95243219    -0.87100
O3035       O  0.49158887  0.41439740  0.55056205    -0.88400
Zr3036     Zr  0.50170505  0.99887877  0.93799568     2.83100
Zr3037     Zr  0.50116341  0.00096056  0.56214009     2.83500
Zr3038     Zr  0.56236201  0.99712039  0.50094708     2.84100
Zr3039     Zr  0.93934400  0.00350648  0.50025035     2.83400
Zr3040     Zr  0.49813358  0.43862601  0.50103795     2.84200
O3041       O  0.96832062  0.47113878  0.53202821    -1.09000
O3042       O  0.53057599  0.46742570  0.96984030    -1.08500
C3043       C  0.49749348  0.41968254  0.92397880     1.06200
C3044       C  0.49050526  0.42348141  0.57877634     1.08800
C3045       C  0.57975693  0.99482497  0.92330542     1.06400
C3046       C  0.92442900  0.00254769  0.92105051     1.06700
C3047       C  0.92375920  0.00916768  0.57911812     1.06300
C3048       C  0.57794457  0.99550735  0.57978009     1.05900
C3049       C  0.57521802  0.41911636  0.50127198     1.06300
C3050       C  0.91971435  0.42520414  0.50201135     1.05800
H3051       H  0.54199200  0.45472415  0.54547276     0.32500
O3052       O  0.53026717  0.46800686  0.53224105    -1.30100
H3053       H  0.95554326  0.45746998  0.95683167     0.32500
O3054       O  0.96858091  0.46991938  0.96946731    -1.31400
O3055       O  0.50166238  0.20190229  0.66083498    -0.86900
O3056       O  0.49870601  0.19879109  0.83535806    -0.87100
O3057       O  0.55079790  0.16413765  0.74835502    -0.88700
O3058       O  0.95164426  0.16247330  0.74660033    -0.87500
O3059       O  0.91504296  0.19968733  0.74974411    -0.87100
O3060       O  0.58656121  0.20197285  0.74853730    -0.88400
O3061       O  0.49967661  0.16241101  0.79734249    -0.86900
O3062       O  0.50252716  0.16410132  0.69740914    -0.86500
Zr3063     Zr  0.50073053  0.18847343  0.74832718     2.84300
O3064       O  0.96964870  0.21858243  0.78014744    -1.08500
O3065       O  0.53115007  0.21986481  0.71797399    -1.09200
C3066       C  0.50235987  0.17368343  0.66920006     1.06200
C3067       C  0.49863560  0.17070014  0.82574236     1.06200
C3068       C  0.57859941  0.17364860  0.74840502     1.09100
C3069       C  0.92368194  0.17141497  0.74771345     1.06900
H3070       H  0.54376844  0.20649080  0.79327558     0.32500
O3071       O  0.53094222  0.21915905  0.78042658    -1.29400
H3072       H  0.95696044  0.20640537  0.70574937     0.32200
O3073       O  0.96924688  0.21942140  0.71856260    -1.31100
O3074       O  0.49983467  0.29968368  0.83650124    -0.86900
O3075       O  0.49435622  0.29878086  0.66127894    -0.88400
O3076       O  0.58541282  0.25303375  0.80031767    -0.87000
O3077       O  0.91370562  0.24966698  0.80053914    -0.87000
O3078       O  0.91302349  0.24859605  0.70128221    -0.86700
O3079       O  0.58616729  0.25028065  0.69962408    -0.86500
O3080       O  0.54974731  0.33773699  0.74642088    -0.86900
O3081       O  0.94982962  0.33795765  0.74926142    -0.86400
O3082       O  0.58592469  0.30039042  0.74934276    -0.87400
O3083       O  0.91323050  0.30063773  0.74804460    -0.86600
O3084       O  0.54872943  0.25127702  0.83728411    -0.87000
O3085       O  0.54935904  0.24976022  0.66249396    -0.86700
O3086       O  0.94960676  0.24606783  0.66416338    -0.86400
O3087       O  0.95066177  0.24787557  0.83779094    -0.86000
O3088       O  0.50054949  0.33715956  0.79942777    -0.87100
O3089       O  0.49319359  0.33583924  0.69827146    -0.88400
Zr3090     Zr  0.49964713  0.24971448  0.81142789     2.83100
Zr3091     Zr  0.49971119  0.25037230  0.68757617     2.83500
Zr3092     Zr  0.56085403  0.25108481  0.74962378     2.84100
Zr3093     Zr  0.93866082  0.25033094  0.75033490     2.83400
Zr3094     Zr  0.49952448  0.31260285  0.74908749     2.84200
O3095       O  0.96900223  0.28120485  0.71906407    -1.09000
O3096       O  0.52976261  0.28146237  0.78055411    -1.08500
C3097       C  0.50054540  0.32793862  0.82767872     1.06200
C3098       C  0.49144198  0.32675538  0.66993379     1.08800
C3099       C  0.57671906  0.25285198  0.82884075     1.06400
C3100       C  0.92272205  0.24833657  0.82881739     1.06700
C3101       C  0.92160025  0.24581275  0.67314326     1.06300
C3102       C  0.57737996  0.24992131  0.67120692     1.05900
C3103       C  0.57784220  0.32860226  0.74726774     1.06300
C3104       C  0.92185995  0.32898802  0.74795889     1.05800
H3105       H  0.54274685  0.29463494  0.70471941     0.32500
O3106       O  0.53046847  0.28199797  0.71787092    -1.30100
H3107       H  0.95645221  0.29408273  0.79409810     0.32500
O3108       O  0.96915429  0.28148287  0.78115487    -1.31400
O3109       O  0.83668220  0.50650991  0.70098110    -0.86900
O3110       O  0.66481933  0.50039215  0.70017628    -0.87100
O3111       O  0.75459916  0.44981106  0.66463967    -0.88700
O3112       O  0.75030978  0.05101642  0.66380635    -0.87500
O3113       O  0.75047051  0.08844723  0.70100272    -0.87100
O3114       O  0.75214010  0.41301693  0.70233954    -0.88400
O3115       O  0.70211664  0.49808548  0.66389730    -0.86900
O3116       O  0.80023820  0.50408871  0.66379673    -0.86500
Zr3117     Zr  0.75115018  0.50050508  0.68902850     2.84300
O3118       O  0.71993211  0.03187849  0.71921051    -1.08500
O3119       O  0.78179362  0.47028879  0.72070656    -1.09200
C3120       C  0.82802887  0.50687906  0.67245265     1.06200
C3121       C  0.67404978  0.49883956  0.67197038     1.06200
C3122       C  0.75404468  0.42166841  0.67397942     1.09100
C3123       C  0.75079180  0.07927606  0.67275780     1.06900
H3124       H  0.70827668  0.45650693  0.70706223     0.32500
O3125       O  0.72053120  0.46953666  0.71998091    -1.29400
H3126       H  0.79302992  0.04604404  0.70763024     0.32200
O3127       O  0.78061299  0.03290381  0.72024994    -1.31100
O3128       O  0.66424229  0.49964977  0.80039966    -0.86900
O3129       O  0.83565917  0.50549696  0.80148865    -0.88400
O3130       O  0.70071691  0.41379383  0.75114703    -0.87000
O3131       O  0.69924443  0.08765868  0.74736066    -0.87000
O3132       O  0.79814589  0.08968063  0.75128519    -0.86700
O3133       O  0.80150811  0.41509285  0.75046277    -0.86500
O3134       O  0.74928688  0.45227329  0.83922913    -0.86900
O3135       O  0.74855093  0.05094024  0.83889136    -0.86400
O3136       O  0.75031339  0.41450796  0.80235147    -0.87400
O3137       O  0.74790154  0.08810870  0.80139550    -0.86600
O3138       O  0.66471852  0.45132492  0.74888210    -0.87000
O3139       O  0.83733812  0.45318919  0.74991316    -0.86700
O3140       O  0.83548901  0.05316489  0.75167808    -0.86400
O3141       O  0.66318888  0.05012811  0.74751123    -0.86800
O3142       O  0.70019829  0.50029030  0.83851074    -0.87100
O3143       O  0.79885394  0.50332659  0.83839020    -0.88400
Zr3144     Zr  0.68933903  0.50080608  0.75033145     2.83100
Zr3145     Zr  0.81141506  0.50279146  0.75120858     2.83500
Zr3146     Zr  0.75099463  0.43909440  0.75182525     2.84100
Zr3147     Zr  0.74919916  0.06339720  0.75100307     2.83400
Zr3148     Zr  0.74953860  0.50177482  0.81310035     2.84200
O3149       O  0.78005464  0.03293239  0.78243330    -1.09000
O3150       O  0.71957904  0.47013938  0.78216111    -1.08500
C3151       C  0.67244236  0.49968783  0.82893600     1.06200
C3152       C  0.82681237  0.50500413  0.82987525     1.08800
C3153       C  0.67267570  0.42302489  0.74984177     1.06400
C3154       C  0.67136740  0.07842838  0.74637599     1.06700
C3155       C  0.82627385  0.08130749  0.75140008     1.06300
C3156       C  0.82930488  0.42473507  0.74995632     1.05900
C3157       C  0.74967127  0.42400118  0.83053569     1.06300
C3158       C  0.74793598  0.07902858  0.82970668     1.05800
H3159       H  0.79415562  0.45876313  0.79556761     0.32500
O3160       O  0.78127933  0.47110242  0.78256581    -1.30100
H3161       H  0.70540456  0.04495408  0.79455613     0.32500
O3162       O  0.71857235  0.03239953  0.78200941    -1.31400
O3163       O  0.70201000  0.16327113  0.00007097    -0.86900
O3164       O  0.70118328  0.33784760  0.00234174    -0.87100
O3165       O  0.66579501  0.24879909  0.55151109    -0.88700
O3166       O  0.66534615  0.25186842  0.94978355    -0.87500
O3167       O  0.70223710  0.25340294  0.91295946    -0.87100
O3168       O  0.70272236  0.24819232  0.58862947    -0.88400
O3169       O  0.66474008  0.30053340  0.00158099    -0.86900
O3170       O  0.66494457  0.20005279  0.00055281    -0.86500
Zr3171     Zr  0.68978655  0.25033405  0.00064135     2.84300
O3172       O  0.72054980  0.28206491  0.97051538    -1.08500
O3173       O  0.72084451  0.21889693  0.53099149    -1.09200
C3174       C  0.67386523  0.17181748  0.00082251     1.06200
C3175       C  0.67322541  0.32890412  0.00222233     1.06200
C3176       C  0.67470361  0.24810358  0.57995087     1.09100
C3177       C  0.67421061  0.25295488  0.92130896     1.06900
H3178       H  0.70787215  0.29291971  0.54583556     0.32500
O3179       O  0.72049244  0.28058842  0.53260475    -1.29400
H3180       H  0.70793872  0.20777877  0.95544119     0.32200
O3181       O  0.72056305  0.22028821  0.96853746    -1.31100
O3182       O  0.80017331  0.33811882  0.00442233    -0.86900
O3183       O  0.80134466  0.16377550  0.99909578    -0.88400
O3184       O  0.75197723  0.29779877  0.58987364    -0.87000
O3185       O  0.75024707  0.30288169  0.91454770    -0.87000
O3186       O  0.75159343  0.20279939  0.91185170    -0.86700
O3187       O  0.75159887  0.19849767  0.58650855    -0.86500
O3188       O  0.83786403  0.24690430  0.54887349    -0.86900
O3189       O  0.83786054  0.25131603  0.94975945    -0.86400
O3190       O  0.80205608  0.24600158  0.58674148    -0.87400
O3191       O  0.80078800  0.25226695  0.91259292    -0.86600
O3192       O  0.75136078  0.33599843  0.55356102    -0.87000
O3193       O  0.75089789  0.16220225  0.54827717    -0.86700
O3194       O  0.75182348  0.16487619  0.94857016    -0.86400
O3195       O  0.74994038  0.33917355  0.95294422    -0.86800
O3196       O  0.83752514  0.30136406  0.00367290    -0.87100
O3197       O  0.83775138  0.20123738  0.99810506    -0.88400
Zr3198     Zr  0.75089191  0.31258911  0.00237085     2.83100
Zr3199     Zr  0.75148544  0.18882556  0.99900162     2.83500
Zr3200     Zr  0.75184261  0.24899344  0.56261235     2.84100
Zr3201     Zr  0.75137916  0.25222823  0.93834931     2.83400
Zr3202     Zr  0.81260183  0.25114801  0.99973320     2.84200
O3203       O  0.78210434  0.22041801  0.96835798    -1.09000
O3204       O  0.78220704  0.28105354  0.53234863    -1.08500
C3205       C  0.82825714  0.32949688  0.00509718     1.06200
C3206       C  0.82925055  0.17293663  0.99877920     1.08800
C3207       C  0.75159177  0.32618514  0.58166281     1.06400
C3208       C  0.74967545  0.33078487  0.92441115     1.06700
C3209       C  0.75182733  0.17450114  0.92050768     1.06300
C3210       C  0.75096369  0.17056769  0.57677602     1.05900
C3211       C  0.82991911  0.24506200  0.57724402     1.06300
C3212       C  0.82877726  0.25175253  0.92148711     1.05800
H3213       H  0.79491703  0.20589289  0.54261487     0.32500
O3214       O  0.78231282  0.21913846  0.53031742    -1.30100
H3215       H  0.79450325  0.29632196  0.95724823     0.32500
O3216       O  0.78189145  0.28309701  0.96977220    -1.31400
C3217       C  0.72805377  0.10319103  0.62678442    -0.06200
C3218       C  0.75150030  0.10304539  0.64857862    -0.00300
C3219       C  0.77499667  0.12507190  0.64660168    -0.08800
C3220       C  0.77414792  0.14647091  0.62241380    -0.06200
C3221       C  0.75080373  0.14634040  0.60041529    -0.00300
C3222       C  0.72729348  0.12436591  0.60244066    -0.08700
C3223       C  0.70114551  0.12359346  0.57956905     0.61600
H3224       H  0.70991544  0.08684993  0.62940979     0.12300
H3225       H  0.79171813  0.16367394  0.62051567     0.12400
C3226       C  0.80076589  0.12607441  0.66985428     0.61900
F3227       F  0.67919599  0.10255929  0.58795394    -0.23300
F3228       F  0.71177717  0.11562298  0.55072781    -0.20600
F3229       F  0.68742426  0.15194959  0.57786641    -0.20300
F3230       F  0.81448224  0.09766125  0.67197558    -0.20300
F3231       F  0.78955072  0.13438211  0.69838016    -0.20700
F3232       F  0.82279260  0.14710544  0.66168499    -0.23300
C3233       C  0.77616713  0.37046982  0.60642427    -0.06200
C3234       C  0.75208315  0.34955666  0.60630500    -0.00300
C3235       C  0.72914829  0.35173463  0.62910320    -0.08800
C3236       C  0.73067963  0.37574553  0.65071032    -0.06200
C3237       C  0.75447678  0.39708196  0.65043967    -0.00300
C3238       C  0.77824824  0.39376120  0.62871101    -0.08700
C3239       C  0.80624131  0.41382995  0.62979273     0.61600
H3240       H  0.79368597  0.36805903  0.58907616     0.12300
H3241       H  0.71317582  0.37812519  0.66807369     0.12400
C3242       C  0.70304994  0.32909804  0.63047208     0.61900
F3243       F  0.82823913  0.40419218  0.60916211    -0.23300
F3244       F  0.81870762  0.41318204  0.65901952    -0.20600
F3245       F  0.79845361  0.44345227  0.62246529    -0.20300
F3246       F  0.71396293  0.30051830  0.63841723    -0.20300
F3247       F  0.68882783  0.32729965  0.60216382    -0.20700
F3248       F  0.68149949  0.33754714  0.65207757    -0.23300
C3249       C  0.72226673  0.38972592  0.86645262    -0.06200
C3250       C  0.74998590  0.40052190  0.85492298    -0.00300
C3251       C  0.77757767  0.38896723  0.86681058    -0.08800
C3252       C  0.77661466  0.36639266  0.88986492    -0.06200
C3253       C  0.74895286  0.35516744  0.90099714    -0.00300
C3254       C  0.72130171  0.36707869  0.88953212    -0.08700
C3255       C  0.69110362  0.35586554  0.90189805     0.61600
H3256       H  0.70142976  0.39914268  0.85718143     0.12300
H3257       H  0.79745236  0.35729128  0.89936642     0.12400
C3258       C  0.80774688  0.40057020  0.85486967     0.61900
F3259       F  0.66684195  0.37043198  0.88790065    -0.23300
F3260       F  0.68950004  0.36142791  0.93321829    -0.20600
F3261       F  0.68837791  0.32477346  0.89672346    -0.20300
F3262       F  0.80969111  0.43180633  0.85951432    -0.20300
F3263       F  0.81001030  0.39435555  0.82371732    -0.20700
F3264       F  0.83203759  0.38694001  0.86966079    -0.23300
C3265       C  0.77616780  0.11213923  0.86530953    -0.06200
C3266       C  0.74806323  0.10295971  0.85348301    -0.00300
C3267       C  0.72110440  0.11745476  0.86353892    -0.08800
C3268       C  0.72329272  0.14142728  0.88502110    -0.06200
C3269       C  0.75147656  0.15085732  0.89649930    -0.00300
C3270       C  0.77838612  0.13619384  0.88663456    -0.08700
C3271       C  0.80918367  0.14625008  0.89842964     0.61600
H3272       H  0.79639969  0.10033556  0.85759202     0.12300
H3273       H  0.70300085  0.15269652  0.89343314     0.12400
C3274       C  0.69029325  0.10699577  0.85219781     0.61900
F3275       F  0.83259235  0.12978680  0.88502897    -0.23300
F3276       F  0.81068245  0.14209504  0.92995285    -0.20600
F3277       F  0.81344571  0.17685699  0.89172705    -0.20300
F3278       F  0.68574294  0.07685427  0.86064769    -0.20300
F3279       F  0.68899403  0.10929046  0.82052263    -0.20700
F3280       F  0.66695701  0.12445358  0.86441133    -0.23300
C3281       C  0.87279397  0.15424111  0.76454359    -0.06200
C3282       C  0.89917058  0.14781287  0.74750898    -0.00300
C3283       C  0.90058276  0.12010673  0.73037675    -0.08800
C3284       C  0.87624667  0.09931538  0.73249603    -0.06200
C3285       C  0.85016005  0.10550344  0.75007383    -0.00300
C3286       C  0.84809386  0.13390995  0.76588430    -0.08700
C3287       C  0.82045943  0.14276880  0.78477716     0.61600
H3288       H  0.87168127  0.17561393  0.77709782     0.12300
H3289       H  0.87730635  0.07787465  0.72001974     0.12400
C3290       C  0.92683078  0.11263061  0.70898035     0.61900
F3291       F  0.82497081  0.16955372  0.80119610    -0.23300
F3292       F  0.81401170  0.11986146  0.80562702    -0.20600
F3293       F  0.79585246  0.14729564  0.76555926    -0.20300
F3294       F  0.95256817  0.10611204  0.72594802    -0.20300
F3295       F  0.93239294  0.13707050  0.68964635    -0.20700
F3296       F  0.92056630  0.08755339  0.69063109    -0.23300
C3297       C  0.85226836  0.37788051  0.72696927    -0.06200
C3298       C  0.85387473  0.40115255  0.74922118    -0.00300
C3299       C  0.87872005  0.40134018  0.77004505    -0.08800
C3300       C  0.89979866  0.37697247  0.76926195    -0.06200
C3301       C  0.89799156  0.35342159  0.74731510    -0.00300
C3302       C  0.87466571  0.35479706  0.72474583    -0.08700
C3303       C  0.87438353  0.33322587  0.69740280     0.61600
H3304       H  0.83369847  0.37848179  0.71064230     0.12300
H3305       H  0.91834593  0.37637305  0.78561150     0.12400
C3306       C  0.88349877  0.42743405  0.79257057     0.61900
F3307       F  0.85211922  0.34090314  0.67623625    -0.23300
F3308       F  0.86891605  0.30387054  0.70733009    -0.20600
F3309       F  0.90213112  0.33420613  0.68252885    -0.20300
F3310       F  0.85744310  0.43261723  0.80949276    -0.20300
F3311       F  0.89090745  0.45360871  0.77638601    -0.20700
F3312       F  0.90681630  0.42134460  0.81302421    -0.23300
C3313       C  0.65351495  0.13059741  0.75959374    -0.06200
C3314       C  0.64719041  0.10249541  0.74520709    -0.00300
C3315       C  0.61843311  0.09851441  0.73076258    -0.08800
C3316       C  0.59710803  0.12252938  0.73226200    -0.06200
C3317       C  0.60313879  0.15013917  0.74763665    -0.00300
C3318       C  0.63196901  0.15428105  0.76174606    -0.08700
C3319       C  0.63985267  0.18266183  0.78046153     0.61600
H3320       H  0.67562239  0.13376472  0.76986887     0.12300
H3321       H  0.57523799  0.11989733  0.72123202     0.12400
C3322       C  0.61017816  0.06979455  0.71283461     0.61900
F3323       F  0.66737956  0.17960835  0.79551575    -0.23300
F3324       F  0.61779967  0.18758892  0.80259860    -0.20600
F3325       F  0.64197655  0.20795113  0.76145381    -0.20300
F3326       F  0.60774182  0.04514141  0.73256661    -0.20300
F3327       F  0.63211219  0.06391899  0.69082427    -0.20700
F3328       F  0.58260604  0.07275649  0.69782152    -0.23300
C3329       C  0.59510867  0.38235563  0.75469000    -0.06200
C3330       C  0.60268967  0.35224330  0.74646011    -0.00300
C3331       C  0.63348883  0.34579031  0.73826274    -0.08800
C3332       C  0.65514975  0.36955718  0.73969006    -0.06200
C3333       C  0.64767150  0.39952024  0.74880954    -0.00300
C3334       C  0.61670702  0.40606067  0.75630989    -0.08700
C3335       C  0.60587891  0.43755368  0.76674210     0.61600
H3336       H  0.57174078  0.38725870  0.76032579     0.12300
H3337       H  0.67847901  0.36475851  0.73357791     0.12400
C3338       C  0.64400506  0.31428560  0.72755573     0.61900
F3339       F  0.57576151  0.43748976  0.77576861    -0.23300
F3340       F  0.60844090  0.45828661  0.74281919    -0.20600
F3341       F  0.62283845  0.44718270  0.79172425    -0.20300
F3342       F  0.62580157  0.30415751  0.70369646    -0.20300
F3343       F  0.64289032  0.29380129  0.75181310    -0.20700
F3344       F  0.67358117  0.31460352  0.71682328    -0.23300
C3345       C  0.90676349  0.24430779  0.61818725    -0.06200
C3346       C  0.89773856  0.24218744  0.64911849    -0.00300
C3347       C  0.86684733  0.23530977  0.65569277    -0.08800
C3348       C  0.84567379  0.23712367  0.63159252    -0.06200
C3349       C  0.85446105  0.24176160  0.60077609    -0.00300
C3350       C  0.88611621  0.24225834  0.59372973    -0.08700
C3351       C  0.89895242  0.23868726  0.56124994     0.61600
H3352       H  0.93057200  0.24692059  0.61301637     0.12300
H3353       H  0.82185858  0.23425603  0.63687508     0.12400
C3354       C  0.85608472  0.22373585  0.68696731     0.61900
F3355       F  0.93029022  0.23607386  0.56122755    -0.23300
F3356       F  0.89168554  0.26359996  0.54317669    -0.20600
F3357       F  0.88752242  0.21231871  0.54803410    -0.20300
F3358       F  0.85557348  0.24709918  0.70832108    -0.20300
F3359       F  0.87510666  0.20064176  0.69708639    -0.20700
F3360       F  0.82708780  0.21170699  0.68547731    -0.23300
C3361       C  0.62907506  0.23459551  0.65415582    -0.06200
C3362       C  0.60158789  0.24937827  0.64704473    -0.00300
C3363       C  0.59845042  0.26356450  0.61774545    -0.08800
C3364       C  0.62310703  0.26292010  0.59716218    -0.06200
C3365       C  0.65056081  0.24808430  0.60418252    -0.00300
C3366       C  0.65350607  0.23325030  0.63322700    -0.08700
C3367       C  0.68161944  0.21507037  0.64207910     0.61600
H3368       H  0.63118813  0.22361947  0.67640661     0.12300
H3369       H  0.62096799  0.27401364  0.57498119     0.12400
C3370       C  0.56926110  0.27908679  0.60770584     0.61900
F3371       F  0.67739577  0.19850656  0.66891894    -0.23300
F3372       F  0.70583986  0.23456506  0.64666798    -0.20600
F3373       F  0.68862666  0.19452513  0.61903665    -0.20300
F3374       F  0.56016005  0.30018259  0.62963352    -0.20300
F3375       F  0.54709319  0.25709072  0.60372464    -0.20700
F3376       F  0.57248505  0.29451047  0.58005622    -0.23300
C3377       C  0.63128602  0.24985310  0.84383976    -0.06200
C3378       C  0.60100340  0.25406219  0.85333804    -0.00300
C3379       C  0.59533135  0.25892514  0.88537712    -0.08800
C3380       C  0.62006430  0.25924708  0.90598984    -0.06200
C3381       C  0.65017646  0.25385459  0.89662537    -0.00300
C3382       C  0.65588790  0.24902881  0.86458948    -0.08700
C3383       C  0.68731398  0.24187977  0.85171733     0.61600
H3384       H  0.63569329  0.24639580  0.81960158     0.12300
H3385       H  0.61580031  0.26340162  0.93015586     0.12400
C3386       C  0.56363071  0.26369094  0.89855025     0.61900
F3387       F  0.68680781  0.23656986  0.82028329    -0.23300
F3388       F  0.69868312  0.21579628  0.86563011    -0.20600
F3389       F  0.70668885  0.26624642  0.85665693    -0.20300
F3390       F  0.54628984  0.23778201  0.89376468    -0.20300
F3391       F  0.55006287  0.28875315  0.88477045    -0.20700
F3392       F  0.56404578  0.26899264  0.92999448    -0.23300
C3393       C  0.88176150  0.27506266  0.85652199    -0.06200
C3394       C  0.89897774  0.24836095  0.85279768    -0.00300
C3395       C  0.89257075  0.22235441  0.87107028    -0.08800
C3396       C  0.86976649  0.22450646  0.89372630    -0.06200
C3397       C  0.85247311  0.25126596  0.89740541    -0.00300
C3398       C  0.85836292  0.27693614  0.87848581    -0.08700
C3399       C  0.84025934  0.30626364  0.88168917     0.61600
H3400       H  0.88680307  0.29446981  0.84188910     0.12300
H3401       H  0.86495710  0.20513748  0.90848583     0.12400
C3402       C  0.90892949  0.19225972  0.86572020     0.61900
F3403       F  0.85162407  0.32916064  0.86299214    -0.23300
F3404       F  0.84128994  0.31643003  0.91185000    -0.20600
F3405       F  0.81044933  0.30103710  0.87335263    -0.20300
F3406       F  0.93924017  0.19525755  0.87329711    -0.20300
F3407       F  0.90645782  0.18399646  0.83507847    -0.20700
F3408       F  0.89670109  0.16887646  0.88321124    -0.23300
C3409       C  0.89650028  0.37961546  0.52638109    -0.06200
C3410       C  0.89533154  0.40172446  0.50296147    -0.00300
C3411       C  0.87163642  0.40031826  0.98082598    -0.08800
C3412       C  0.85027377  0.37640036  0.98279565    -0.06200
C3413       C  0.85151549  0.35414692  0.50619256    -0.00300
C3414       C  0.87446170  0.35646030  0.52912805    -0.08700
C3415       C  0.87642830  0.33651542  0.55768073     0.61600
H3416       H  0.91442799  0.38104582  0.54345348     0.12300
H3417       H  0.83231951  0.37478526  0.96582881     0.12400
C3418       C  0.86893600  0.42362742  0.95501293     0.61900
F3419       F  0.87640415  0.35504673  0.08359176    -0.23300
F3420       F  0.90319236  0.32028543  0.05704067    -0.20600
F3421       F  0.85257839  0.31629807  0.56058670    -0.20300
F3422       F  0.89665945  0.42788708  0.94080424    -0.20300
F3423       F  0.85915652  0.45121038  0.46691728    -0.20700
F3424       F  0.84854456  0.41428952  0.43272748    -0.23300
C3425       C  0.87850496  0.15324646  0.47933791    -0.06200
C3426       C  0.85371659  0.14933295  0.49930798    -0.00300
C3427       C  0.85389952  0.12444189  0.02012928    -0.08800
C3428       C  0.87813764  0.10335160  0.01898593    -0.06200
C3429       C  0.90266344  0.10680098  0.49860669    -0.00300
C3430       C  0.90315381  0.13257173  0.47868374    -0.08700
C3431       C  0.92889484  0.13786554  0.45605025     0.61600
H3432       H  0.87824147  0.17272570  0.46392955     0.12300
H3433       H  0.87818196  0.08383475  0.03436251     0.12400
C3434       C  0.82929935  0.12060814  0.04438313     0.61900
F3435       F  0.92381168  0.16328322  0.93771805    -0.23300
F3436       F  0.93170289  0.11265436  0.93667914    -0.20600
F3437       F  0.95574951  0.14259260  0.47174209    -0.20300
F3438       F  0.80246969  0.11172689  0.03055202    -0.20300
F3439       F  0.82471015  0.14775083  0.55993346    -0.20700
F3440       F  0.83700476  0.09853216  0.56602645    -0.23300
C3441       C  0.62612201  0.40141647  0.51764510    -0.06200
C3442       C  0.59907410  0.39477326  0.50186925    -0.00300
C3443       C  0.59657506  0.36642327  0.98621248    -0.08800
C3444       C  0.62133983  0.34588308  0.98700650    -0.06200
C3445       C  0.64864846  0.35269817  0.50236432    -0.00300
C3446       C  0.65103139  0.38118774  0.51811473    -0.08700
C3447       C  0.67947686  0.39082450  0.53537764     0.61600
H3448       H  0.62776127  0.42314062  0.52952202     0.12300
H3449       H  0.61966776  0.32423159  0.97501361     0.12400
C3450       C  0.56850542  0.35813078  0.96767894     0.61900
F3451       F  0.67473564  0.41676819  0.05310773    -0.23300
F3452       F  0.70225125  0.39759781  0.01428461    -0.20600
F3453       F  0.68897412  0.36771215  0.55479853    -0.20300
F3454       F  0.56232122  0.38095843  0.94651357    -0.20300
F3455       F  0.54401198  0.35456357  0.48661757    -0.20700
F3456       F  0.57250085  0.33129360  0.45108115    -0.23300
C3457       C  0.60137486  0.12529699  0.51636675    -0.06200
C3458       C  0.60761005  0.09776622  0.50080656    -0.00300
C3459       C  0.63627561  0.09441918  0.98595115    -0.08800
C3460       C  0.65689663  0.11916768  0.98662011    -0.06200
C3461       C  0.65028080  0.14701160  0.50157265    -0.00300
C3462       C  0.62210757  0.14983215  0.51735853    -0.08700
C3463       C  0.61374123  0.17819582  0.53580324     0.61600
H3464       H  0.57972872  0.12751153  0.52795541     0.12300
H3465       H  0.67852523  0.11702022  0.97499898     0.12400
C3466       C  0.64507117  0.06544776  0.96865138     0.61900
F3467       F  0.58810261  0.17363160  0.55364970    -0.23300
F3468       F  0.60782176  0.20222111  0.01602089    -0.20600
F3469       F  0.63717653  0.18589515  0.55547624    -0.20300
F3470       F  0.62307108  0.05841397  0.94708482    -0.20300
F3471       F  0.64813559  0.04141170  0.48896088    -0.20700
F3472       F  0.67237452  0.06865133  0.95318625    -0.23300
C3473       C  0.87028499  0.00887150  0.90645203    -0.06200
C3474       C  0.90027052  0.00313373  0.89672598    -0.00300
C3475       C  0.90528780  0.49686055  0.86531690    -0.08800
C3476       C  0.88071063  0.49814265  0.84474530    -0.06200
C3477       C  0.85097004  0.00431897  0.85414881    -0.00300
C3478       C  0.84553748  0.00964207  0.88603293    -0.08700
C3479       C  0.81419048  0.01674849  0.89903442     0.61600
H3480       H  0.86611622  0.01287912  0.93065068     0.12300
H3481       H  0.88467718  0.49293538  0.82077588     0.12400
C3482       C  0.93621301  0.48737220  0.85275916     0.61900
F3483       F  0.81505711  0.02355651  0.93017045    -0.23300
F3484       F  0.79502796  0.49721465  0.89620245    -0.20600
F3485       F  0.80202073  0.04187312  0.88409560    -0.20300
F3486       F  0.94679688  0.46204446  0.86859722    -0.20300
F3487       F  0.95609786  0.01590691  0.85620139    -0.20700
F3488       F  0.93510220  0.47959674  0.82187318    -0.23300
C3489       C  0.59976089  0.01452242  0.87426214    -0.06200
C3490       C  0.60384818  0.99491052  0.89948950    -0.00300
C3491       C  0.62989508  0.47541389  0.90083773    -0.08800
C3492       C  0.65185878  0.47808543  0.87739785    -0.06200
C3493       C  0.64804915  0.99873019  0.85235584    -0.00300
C3494       C  0.62124836  0.01671472  0.85047917    -0.08700
C3495       C  0.61520150  0.03846146  0.82384090     0.61600
H3496       H  0.57936134  0.02835210  0.87337925     0.12300
H3497       H  0.67204394  0.46391119  0.87804875     0.12400
C3498       C  0.63414233  0.45158656  0.92602511     0.61900
F3499       F  0.59019187  0.05692388  0.82924081    -0.23300
F3500       F  0.61090004  0.52348587  0.79785157    -0.20600
F3501       F  0.63992291  0.05734046  0.81927638    -0.20300
F3502       F  0.60818119  0.43405422  0.92880363    -0.20300
F3503       F  0.64008169  0.96796617  0.95457952    -0.20700
F3504       F  0.65806471  0.43199373  0.91964388    -0.23300
C3505       C  0.62116402  0.98987509  0.65642964    -0.06200
C3506       C  0.65081128  0.99735354  0.64713725    -0.00300
C3507       C  0.65631944  0.50267924  0.61549801    -0.08800
C3508       C  0.63174218  0.50287376  0.59482928    -0.06200
C3509       C  0.60216342  0.99476936  0.60400800    -0.00300
C3510       C  0.59687440  0.98768151  0.63559920    -0.08700
C3511       C  0.56644668  0.97648364  0.64772340     0.61600
H3512       H  0.61703855  0.98522015  0.68052703     0.12300
H3513       H  0.63594237  0.50827677  0.57090683     0.12400
C3514       C  0.68813582  0.50774899  0.60271770     0.61900
F3515       F  0.56772481  0.46608425  0.67709906    -0.23300
F3516       F  0.55717606  0.45174377  0.62892051    -0.20600
F3517       F  0.54500077  0.99949153  0.64600177    -0.20300
F3518       F  0.70577428  0.48200758  0.60781660    -0.20300
F3519       F  0.70024677  0.03421719  0.61632114    -0.20700
F3520       F  0.68782606  0.01397981  0.57099381    -0.23300
C3521       C  0.86935231  0.51219854  0.59480009    -0.06200
C3522       C  0.90018722  0.01250943  0.60393407    -0.00300
C3523       C  0.90691865  0.01538877  0.63600500    -0.08800
C3524       C  0.88300782  0.01216734  0.65735105    -0.06200
C3525       C  0.85234658  0.01148748  0.64823073    -0.00300
C3526       C  0.84535024  0.51434903  0.61604694    -0.08700
C3527       C  0.81413532  0.52343994  0.60389838     0.61600
H3528       H  0.86409458  0.51208954  0.57046635     0.12300
H3529       H  0.88826541  0.01143339  0.68167520     0.12400
C3530       C  0.93790089  0.02535741  0.64814055     0.61900
F3531       F  0.81584451  0.03573237  0.57424371    -0.23300
F3532       F  0.80498421  0.05134154  0.62188402    -0.20600
F3533       F  0.79383907  0.49961344  0.60641692    -0.20300
F3534       F  0.94613498  0.05248858  0.63405430    -0.20300
F3535       F  0.95940816  0.50232580  0.64295760    -0.20700
F3536       F  0.93715304  0.52851368  0.68003193    -0.23300
C3537       C  0.51750361  0.15006746  0.87486740    -0.06200
C3538       C  0.49871856  0.14602032  0.84919276    -0.00300
C3539       C  0.98236969  0.11778210  0.84530104    -0.08800
C3540       C  0.98404938  0.09589924  0.86910226    -0.06200
C3541       C  0.50263423  0.10059990  0.89561747    -0.00300
C3542       C  0.52055957  0.12752405  0.89769887    -0.08700
C3543       C  0.54425452  0.13195681  0.92274264     0.61600
H3544       H  0.53066756  0.17091029  0.87642092     0.12300
H3545       H  0.97121899  0.07488889  0.86732529     0.12400
C3546       C  0.96317233  0.11100381  0.81691950     0.61900
F3547       F  0.56281608  0.15677952  0.91674013    -0.23300
F3548       F  0.56253542  0.10624869  0.92456630    -0.20600
F3549       F  0.53032948  0.13704726  0.95079383    -0.20300
F3550       F  0.98162686  0.10759312  0.79137493    -0.20300
F3551       F  0.94284068  0.13461349  0.81190554    -0.20700
F3552       F  0.94670909  0.08425294  0.82007845    -0.23300
C3553       C  0.51714590  0.39936365  0.87498070    -0.06200
C3554       C  0.49781918  0.39510362  0.90031057    -0.00300
C3555       C  0.97998892  0.36791056  0.90242222    -0.08800
C3556       C  0.98132380  0.34695269  0.87785469    -0.06200
C3557       C  0.50057893  0.35153316  0.85214674    -0.00300
C3558       C  0.51944322  0.37772301  0.85118864    -0.08700
C3559       C  0.54244810  0.38270983  0.82568456     0.61600
H3560       H  0.53095666  0.41982004  0.87414844     0.12300
H3561       H  0.96696408  0.32687347  0.87798724     0.12400
C3562       C  0.95910159  0.36100522  0.92940650     0.61900
F3563       F  0.56286525  0.40560869  0.83306947    -0.23300
F3564       F  0.52752573  0.39106905  0.79898434    -0.20600
F3565       F  0.55891938  0.35619164  0.82062023    -0.20300
F3566       F  0.93944268  0.38515757  0.93412021    -0.20300
F3567       F  0.97607863  0.35607876  0.95571245    -0.20700
F3568       F  0.94183068  0.33501193  0.92439369    -0.23300
C3569       C  0.48376909  0.36859642  0.59288220    -0.06200
C3570       C  0.48548206  0.39926884  0.60262955    -0.00300
C3571       C  0.98183871  0.40513344  0.63487889    -0.08800
C3572       C  0.98435811  0.38084458  0.65571448    -0.06200
C3573       C  0.48620212  0.35058543  0.64581315    -0.00300
C3574       C  0.48211777  0.34420687  0.61387217    -0.08700
C3575       C  0.47469220  0.31257296  0.60149633     0.61600
H3576       H  0.48367434  0.36353372  0.56848504     0.12300
H3577       H  0.98422983  0.38590212  0.68011262     0.12400
C3578       C  0.97227365  0.43602564  0.64701734     0.61900
F3579       F  0.00126630  0.29402571  0.60270802    -0.23300
F3580       F  0.95241305  0.29961038  0.61742887    -0.20600
F3581       F  0.46472338  0.31357938  0.57126985    -0.20300
F3582       F  0.94894536  0.44714395  0.62883843    -0.20300
F3583       F  0.49702148  0.45600181  0.64601916    -0.20700
F3584       F  0.46182382  0.43505413  0.67647253    -0.23300
C3585       C  0.52753921  0.12961619  0.64419951    -0.06200
C3586       C  0.50331522  0.15053990  0.64442045    -0.00300
C3587       C  0.98363004  0.15049152  0.61996913    -0.08800
C3588       C  0.98499484  0.12643928  0.59862917    -0.06200
C3589       C  0.50592867  0.10369135  0.59997091    -0.00300
C3590       C  0.52984096  0.10683490  0.62140889    -0.08700
C3591       C  0.55809965  0.08709059  0.61919736     0.61600
H3592       H  0.54501542  0.13169744  0.66162683     0.12300
H3593       H  0.96804641  0.12464648  0.58064759     0.12400
C3594       C  0.95943158  0.17503401  0.61621721     0.61900
F3595       F  0.58073265  0.09715528  0.63878987    -0.23300
F3596       F  0.56940135  0.08787528  0.58945582    -0.20600
F3597       F  0.55108309  0.05730910  0.62681176    -0.20300
F3598       F  0.97309109  0.20262354  0.60927454    -0.20300
F3599       F  0.94282413  0.17798317  0.64304238    -0.20700
F3600       F  0.93944959  0.16828815  0.59257002    -0.23300
O3601       O  0.50370218  0.55165211  0.08573311    -0.86900
O3602       O  0.50210896  0.54839187  0.41087625    -0.87100
O3603       O  0.55421526  0.58477457  0.99792471    -0.88700
O3604       O  0.95361286  0.58900650  0.99823931    -0.87500
O3605       O  0.91560902  0.55324228  0.99865850    -0.87100
O3606       O  0.58952839  0.54632068  0.00056049    -0.88400
O3607       O  0.50260109  0.58589048  0.44778327    -0.86900
O3608       O  0.50416567  0.58810020  0.04754796    -0.86500
Zr3609     Zr  0.50326754  0.56200709  0.99833899     2.84300
O3610       O  0.97130523  0.53123433  0.46847705    -1.08500
O3611       O  0.53252972  0.53073384  0.03078211    -1.09200
C3612       C  0.50447638  0.57954656  0.07596022     1.06200
C3613       C  0.50243454  0.57676315  0.41954703     1.06200
C3614       C  0.58194563  0.57485895  0.99896328     1.09100
C3615       C  0.92528763  0.58114147  0.99810612     1.06900
H3616       H  0.54651802  0.54125145  0.45532085     0.32500
O3617       O  0.53328683  0.52932970  0.46832029    -1.29400
H3618       H  0.95894872  0.54661685  0.04298055     0.32200
O3619       O  0.97097441  0.53290213  0.03053651    -1.31100
O3620       O  0.49862050  0.94803115  0.41415318    -0.86900
O3621       O  0.49436745  0.95147062  0.08742474    -0.88400
O3622       O  0.58821805  0.49498122  0.45180175    -0.87000
O3623       O  0.91507230  0.50312345  0.44967915    -0.87000
O3624       O  0.91449215  0.50671951  0.05084272    -0.86700
O3625       O  0.58653184  0.49611121  0.05125125    -0.86500
O3626       O  0.54695497  0.91072161  0.00190067    -0.86900
O3627       O  0.94683172  0.91632908  0.00295004    -0.86400
O3628       O  0.58504918  0.94627119  0.00066388    -0.87400
O3629       O  0.91150630  0.95498690  0.00162202    -0.86600
O3630       O  0.55191199  0.49590350  0.41393796    -0.87000
O3631       O  0.54968428  0.49866140  0.08807938    -0.86700
O3632       O  0.95147359  0.50670633  0.08751468    -0.86400
O3633       O  0.95209285  0.50174077  0.41294993    -0.86800
O3634       O  0.49596560  0.91157010  0.45192316    -0.87100
O3635       O  0.49185995  0.91440933  0.05052084    -0.88400
Zr3636     Zr  0.50158221  0.49892549  0.43775665     2.83100
Zr3637     Zr  0.50068278  0.50121249  0.06197892     2.83500
Zr3638     Zr  0.56202127  0.49767788  0.00088276     2.84100
Zr3639     Zr  0.93902036  0.50259835  0.00022669     2.83400
Zr3640     Zr  0.49827041  0.93835037  0.00086315     2.84200
O3641       O  0.96846890  0.97193765  0.03213304    -1.09000
O3642       O  0.53083134  0.96708956  0.46967822    -1.08500
C3643       C  0.49661065  0.91993110  0.42349956     1.06200
C3644       C  0.49074376  0.92345511  0.07874924     1.08800
C3645       C  0.57976785  0.49468277  0.42339468     1.06400
C3646       C  0.92406890  0.50280474  0.42132721     1.06700
C3647       C  0.92352777  0.50827012  0.07922576     1.06300
C3648       C  0.57768682  0.49678767  0.07964897     1.05900
C3649       C  0.57530524  0.91841722  0.00126469     1.06300
C3650       C  0.91919750  0.92641142  0.00252453     1.05800
H3651       H  0.54209413  0.95416747  0.04536290     0.32500
O3652       O  0.53043810  0.96757329  0.03219759    -1.30100
H3653       H  0.95548280  0.95799631  0.45716091     0.32500
O3654       O  0.96863251  0.97044415  0.46967120    -1.31400
O3655       O  0.50105189  0.70201034  0.16007700    -0.86900
O3656       O  0.49925855  0.69879460  0.33464496    -0.87100
O3657       O  0.55021342  0.66348566  0.24731155    -0.88700
O3658       O  0.95122667  0.66255961  0.24693920    -0.87500
O3659       O  0.91464249  0.69975695  0.24981067    -0.87100
O3660       O  0.58610120  0.70121072  0.24690571    -0.88400
O3661       O  0.49945611  0.66229465  0.29669361    -0.86900
O3662       O  0.50199801  0.66413779  0.19655969    -0.86500
Zr3663     Zr  0.50038682  0.68837107  0.24761734     2.84300
O3664       O  0.96946196  0.71819096  0.28023374    -1.08500
O3665       O  0.53075699  0.71957092  0.21700565    -1.09200
C3666       C  0.50179340  0.67379076  0.16836332     1.06200
C3667       C  0.49881921  0.67068348  0.32509869     1.06200
C3668       C  0.57804137  0.67291695  0.24707379     1.09100
C3669       C  0.92327123  0.67150574  0.24787591     1.06900
H3670       H  0.54383041  0.70627307  0.29211162     0.32500
O3671       O  0.53098496  0.71902444  0.27936953    -1.29400
H3672       H  0.95662998  0.70643191  0.20573454     0.32200
O3673       O  0.96902610  0.71935570  0.21853501    -1.31100
O3674       O  0.50044881  0.79965940  0.33606610    -0.86900
O3675       O  0.49395420  0.79867509  0.16082702    -0.88400
O3676       O  0.58628777  0.75217016  0.29860432    -0.87000
O3677       O  0.91367148  0.74968077  0.30064286    -0.87000
O3678       O  0.91241851  0.74871355  0.20150341    -0.86700
O3679       O  0.58565886  0.74917349  0.19775981    -0.86500
O3680       O  0.55019514  0.83737891  0.24584085    -0.86900
O3681       O  0.94939219  0.83748710  0.25050498    -0.86400
O3682       O  0.58627285  0.79990142  0.24785557    -0.87400
O3683       O  0.91296007  0.80010084  0.24955570    -0.86600
O3684       O  0.54967802  0.75120324  0.33567307    -0.87000
O3685       O  0.54847011  0.74912221  0.16101787    -0.86700
O3686       O  0.94908615  0.74643790  0.16438781    -0.86400
O3687       O  0.95074738  0.74759589  0.33776377    -0.86000
O3688       O  0.50115758  0.83700571  0.29890161    -0.87100
O3689       O  0.49383625  0.83576973  0.19777490    -0.88400
Zr3690     Zr  0.50010858  0.74971859  0.31074836     2.83100
Zr3691     Zr  0.49928739  0.75031488  0.18694883     2.83500
Zr3692     Zr  0.56100339  0.75062333  0.24823937     2.84100
Zr3693     Zr  0.93853260  0.75009577  0.25046306     2.83400
Zr3694     Zr  0.50001332  0.81248209  0.24850964     2.84200
O3695       O  0.96868691  0.78122565  0.21921340    -1.09000
O3696       O  0.53032672  0.78110690  0.27958450    -1.08500
C3697       C  0.50109246  0.82791866  0.32719319     1.06200
C3698       C  0.49159354  0.82666714  0.16948835     1.08800
C3699       C  0.57767094  0.75230043  0.32715718     1.06400
C3700       C  0.92280499  0.74834257  0.32886552     1.06700
C3701       C  0.92106200  0.74611874  0.17332916     1.06300
C3702       C  0.57657608  0.74876484  0.16941483     1.05900
C3703       C  0.57825177  0.82817997  0.24631429     1.06300
C3704       C  0.92141054  0.82844975  0.24967833     1.05800
H3705       H  0.54277374  0.79435131  0.20361945     0.32500
O3706       O  0.53053079  0.78179273  0.21688210    -1.30100
H3707       H  0.95645573  0.79349016  0.29452492     0.32500
O3708       O  0.96910283  0.78097762  0.28144567    -1.31400
O3709       O  0.83707918  0.00694880  0.20118845    -0.86900
O3710       O  0.66528395  0.00055803  0.19988258    -0.87100
O3711       O  0.75428198  0.95022253  0.16429979    -0.88700
O3712       O  0.74930806  0.55056860  0.16356857    -0.87500
O3713       O  0.74936234  0.58824665  0.20049518    -0.87100
O3714       O  0.75219590  0.91326673  0.20181785    -0.88400
O3715       O  0.70259760  0.99879442  0.16358432    -0.86900
O3716       O  0.80073011  0.00450730  0.16390510    -0.86500
Zr3717     Zr  0.75152300  0.00082437  0.18900134     2.84300
O3718       O  0.71962307  0.53158468  0.21912861    -1.08500
O3719       O  0.78206292  0.97023626  0.22048124    -1.09200
C3720       C  0.82848861  0.00748601  0.17263583     1.06200
C3721       C  0.67452632  0.99920659  0.17168135     1.06200
C3722       C  0.75382705  0.92201809  0.17345973     1.09100
C3723       C  0.74956335  0.57889939  0.17230557     1.06900
H3724       H  0.70847193  0.95688735  0.20670689     0.32500
O3725       O  0.72071166  0.96982976  0.21972724    -1.29400
H3726       H  0.79261954  0.54585778  0.20720791     0.32200
O3727       O  0.78032965  0.53276324  0.21998692    -1.31100
O3728       O  0.66409067  0.99985072  0.30010637    -0.86900
O3729       O  0.83559206  0.00485334  0.30158879    -0.88400
O3730       O  0.70050912  0.91411518  0.25061949    -0.87000
O3731       O  0.69902219  0.58760363  0.24658086    -0.87000
O3732       O  0.79762315  0.58984155  0.25032453    -0.86700
O3733       O  0.80160282  0.91546620  0.25149707    -0.86500
O3734       O  0.74977757  0.95156940  0.33872404    -0.86900
O3735       O  0.74846263  0.55144511  0.33850201    -0.86400
O3736       O  0.75048020  0.91396727  0.30166666    -0.87400
O3737       O  0.74757066  0.58837129  0.30076562    -0.86600
O3738       O  0.66444992  0.95159477  0.24804446    -0.87000
O3739       O  0.83766654  0.95328991  0.25090002    -0.86700
O3740       O  0.83507192  0.55344342  0.25077341    -0.86400
O3741       O  0.66310968  0.54994812  0.24750027    -0.86800
O3742       O  0.70004777  0.00013628  0.33822252    -0.87100
O3743       O  0.79877785  0.00237083  0.33840105    -0.88400
Zr3744     Zr  0.68944030  0.00093304  0.25015038     2.83100
Zr3745     Zr  0.81154857  0.00265307  0.25130737     2.83500
Zr3746     Zr  0.75095146  0.93912643  0.25146172     2.84100
Zr3747     Zr  0.74887098  0.56335560  0.25058404     2.83400
Zr3748     Zr  0.74949807  0.00137922  0.31308206     2.84200
O3749       O  0.77991877  0.53317963  0.28214155    -1.09000
O3750       O  0.71944369  0.96994931  0.28196628    -1.08500
C3751       C  0.67228654  0.99981369  0.32865010     1.06200
C3752       C  0.82674506  0.00403015  0.32994287     1.08800
C3753       C  0.67245604  0.92329288  0.24905980     1.06400
C3754       C  0.67120029  0.57824225  0.24584620     1.06700
C3755       C  0.82576437  0.58156783  0.25034434     1.06300
C3756       C  0.82947910  0.92491779  0.25134588     1.05900
C3757       C  0.75018385  0.92333056  0.32989329     1.06300
C3758       C  0.74774186  0.57945168  0.32911573     1.05800
H3759       H  0.79395414  0.95854594  0.29534036     0.32500
O3760       O  0.78115223  0.97096244  0.28234154    -1.30100
H3761       H  0.70522881  0.54511955  0.29446741     0.32500
O3762       O  0.71841619  0.53253500  0.28196996    -1.31400
O3763       O  0.70211770  0.66266312  0.49871536    -0.86900
O3764       O  0.70113470  0.83720776  0.50232654    -0.87100
O3765       O  0.66559631  0.74764531  0.05004543    -0.88700
O3766       O  0.66593594  0.75145680  0.44850150    -0.87500
O3767       O  0.70304912  0.75323717  0.41194033    -0.87100
O3768       O  0.70204182  0.74679426  0.08770156    -0.88400
O3769       O  0.66476451  0.79985466  0.50086872    -0.86900
O3770       O  0.66530518  0.69967528  0.49890117    -0.86500
Zr3771     Zr  0.69003675  0.74994877  0.49955386     2.84300
O3772       O  0.72089346  0.78197563  0.46987645    -1.08500
O3773       O  0.72071903  0.71848575  0.03016561    -1.09200
C3774       C  0.67401724  0.67139329  0.49918347     1.06200
C3775       C  0.67320967  0.82819720  0.50196095     1.06200
C3776       C  0.67414208  0.74657908  0.07856587     1.09100
C3777       C  0.67495673  0.75261683  0.42007499     1.06900
H3778       H  0.70761147  0.79228526  0.04516023     0.32500
O3779       O  0.72038103  0.78008744  0.03194280    -1.29400
H3780       H  0.70835503  0.70768626  0.45432801     0.32200
O3781       O  0.72091357  0.72011658  0.46756195    -1.31100
O3782       O  0.80013041  0.83830669  0.50402028    -0.86900
O3783       O  0.80105222  0.66352991  0.49795171    -0.88400
O3784       O  0.75119620  0.79734246  0.08963895    -0.87000
O3785       O  0.75086529  0.80276155  0.41419601    -0.87000
O3786       O  0.75211148  0.70320831  0.41099840    -0.86700
O3787       O  0.75130813  0.69775058  0.08573437    -0.86500
O3788       O  0.83741390  0.74768397  0.04900811    -0.86900
O3789       O  0.83849329  0.75138380  0.45014541    -0.86400
O3790       O  0.80152161  0.74594643  0.08675453    -0.87400
O3791       O  0.80163420  0.75230990  0.41274533    -0.86600
O3792       O  0.75106689  0.83555103  0.05336600    -0.87000
O3793       O  0.75079561  0.66170211  0.04728104    -0.86700
O3794       O  0.75144361  0.66513496  0.44754869    -0.86400
O3795       O  0.75013264  0.83896666  0.45267001    -0.86800
O3796       O  0.83757242  0.80164267  0.50347263    -0.87100
O3797       O  0.83761967  0.70084514  0.49828591    -0.88400
Zr3798     Zr  0.75099519  0.81235049  0.50212691     2.83100
Zr3799     Zr  0.75147062  0.68861954  0.49821515     2.83500
Zr3800     Zr  0.75147135  0.74848290  0.06219904     2.84100
Zr3801     Zr  0.75195616  0.75223780  0.43790045     2.83400
Zr3802     Zr  0.81272357  0.75108698  0.49972537     2.84200
O3803       O  0.78245588  0.72035485  0.46804495    -1.09000
O3804       O  0.78200116  0.78073415  0.03223537    -1.08500
C3805       C  0.82825681  0.82981861  0.50471795     1.06200
C3806       C  0.82895402  0.67254755  0.49830635     1.08800
C3807       C  0.75095422  0.82577135  0.08148253     1.06400
C3808       C  0.75010398  0.83060812  0.42411596     1.06700
C3809       C  0.75175476  0.67491257  0.41954175     1.06300
C3810       C  0.75073181  0.66986126  0.07583788     1.05900
C3811       C  0.82942077  0.74565455  0.07732536     1.06300
C3812       C  0.82955163  0.75183915  0.42184827     1.05800
H3813       H  0.79477087  0.70561817  0.04217685     0.32500
O3814       O  0.78218128  0.71886012  0.02985285    -1.30100
H3815       H  0.79488032  0.79631464  0.45721894     0.32500
O3816       O  0.78221049  0.78303663  0.46962562    -1.31400
C3817       C  0.72743746  0.60228257  0.12556054    -0.06200
C3818       C  0.75035447  0.60253224  0.14794541    -0.00300
C3819       C  0.77398594  0.62439812  0.14598810    -0.08800
C3820       C  0.77327464  0.64591016  0.12190634    -0.06200
C3821       C  0.75045080  0.64546344  0.09937118    -0.00300
C3822       C  0.72743948  0.62287818  0.10066905    -0.08700
C3823       C  0.70303537  0.62037707  0.07602545     0.61600
H3824       H  0.70937246  0.58581383  0.12786125     0.12300
H3825       H  0.79073554  0.66325862  0.12034055     0.12400
C3826       C  0.80002889  0.62479539  0.16891569     0.61900
F3827       F  0.68147820  0.59855928  0.08335166    -0.23300
F3828       F  0.71612178  0.61209895  0.04831835    -0.20600
F3829       F  0.68829796  0.64803403  0.07244272    -0.20300
F3830       F  0.81311690  0.59606183  0.17079539    -0.20300
F3831       F  0.78937291  0.63331901  0.19758644    -0.20700
F3832       F  0.82244328  0.64525994  0.16043301    -0.23300
C3833       C  0.77442481  0.87153559  0.10466699    -0.06200
C3834       C  0.75150031  0.84934123  0.10607478    -0.00300
C3835       C  0.72962222  0.85080125  0.13001619    -0.08800
C3836       C  0.73138750  0.87492464  0.15151305    -0.06200
C3837       C  0.75404392  0.89744035  0.14978690    -0.00300
C3838       C  0.77644326  0.89532270  0.12644343    -0.08700
C3839       C  0.80295447  0.91733052  0.12510275     0.61600
H3840       H  0.79105942  0.86984839  0.08636623     0.12300
H3841       H  0.71473556  0.87665731  0.16978822     0.12400
C3842       C  0.70391855  0.82776971  0.13236041     0.61900
F3843       F  0.82372798  0.90926084  0.10258061    -0.23300
F3844       F  0.81785895  0.91767369  0.15314174    -0.20600
F3845       F  0.79250549  0.94628188  0.11845506    -0.20300
F3846       F  0.71544881  0.79895844  0.13831251    -0.20300
F3847       F  0.68777707  0.82707865  0.10509130    -0.20700
F3848       F  0.68386837  0.83507977  0.15579567    -0.23300
C3849       C  0.72288349  0.88790153  0.36457265    -0.06200
C3850       C  0.75059904  0.89977942  0.35418885    -0.00300
C3851       C  0.77814729  0.88925060  0.36715259    -0.08800
C3852       C  0.77707024  0.86709324  0.39061534    -0.06200
C3853       C  0.74941374  0.85490022  0.40067378    -0.00300
C3854       C  0.72184243  0.86531151  0.38767193    -0.08700
C3855       C  0.69163960  0.85238594  0.39821740     0.61600
H3856       H  0.70210196  0.89633789  0.35427871     0.12300
H3857       H  0.79783342  0.85883040  0.40105819     0.12400
C3858       C  0.80841725  0.90113946  0.35570194     0.61900
F3859       F  0.66742088  0.86625816  0.38345074    -0.23300
F3860       F  0.68826015  0.85682914  0.42957396    -0.20600
F3861       F  0.69061740  0.82140005  0.39197172    -0.20300
F3862       F  0.80980655  0.93247417  0.35971846    -0.20300
F3863       F  0.81156734  0.89435328  0.32474554    -0.20700
F3864       F  0.83254940  0.88816662  0.37135106    -0.23300
C3865       C  0.77608934  0.61387640  0.36318126    -0.06200
C3866       C  0.74790237  0.60348472  0.35269618    -0.00300
C3867       C  0.72082755  0.61681274  0.36393024    -0.08800
C3868       C  0.72295106  0.64077962  0.38540047    -0.06200
C3869       C  0.75122290  0.65146312  0.39545760    -0.00300
C3870       C  0.77824976  0.63814221  0.38420791    -0.08700
C3871       C  0.80907246  0.64979368  0.39430777     0.61600
H3872       H  0.79642174  0.60280160  0.35472566     0.12300
H3873       H  0.70260252  0.65114340  0.39479604     0.12400
C3874       C  0.69005605  0.60518638  0.35371555     0.61900
F3875       F  0.83253728  0.63419013  0.38000725    -0.23300
F3876       F  0.81224941  0.64627855  0.42578822    -0.20600
F3877       F  0.81159319  0.68044442  0.38690796    -0.20300
F3878       F  0.68714938  0.57475343  0.36186812    -0.20300
F3879       F  0.68738932  0.60790149  0.32213700    -0.20700
F3880       F  0.66652408  0.62141576  0.36718375    -0.23300
C3881       C  0.87179702  0.65482538  0.26325026    -0.06200
C3882       C  0.89873770  0.64796643  0.24733101    -0.00300
C3883       C  0.90069177  0.61991232  0.23084882    -0.08800
C3884       C  0.87611755  0.59936400  0.23227006    -0.06200
C3885       C  0.84954268  0.60587106  0.24896308    -0.00300
C3886       C  0.84706232  0.63454968  0.26423971    -0.08700
C3887       C  0.81903337  0.64371568  0.28238936     0.61600
H3888       H  0.87030455  0.67643946  0.27533525     0.12300
H3889       H  0.87751443  0.57772018  0.22019576     0.12400
C3890       C  0.92804113  0.61155535  0.21126105     0.61900
F3891       F  0.82323325  0.67066913  0.29861955    -0.23300
F3892       F  0.81211826  0.62108204  0.30334756    -0.20600
F3893       F  0.79483253  0.64805035  0.26260886    -0.20300
F3894       F  0.95268352  0.60542738  0.22995858    -0.20300
F3895       F  0.93494741  0.63526605  0.19145557    -0.20700
F3896       F  0.92266893  0.58589578  0.19347122    -0.23300
C3897       C  0.84960215  0.87544029  0.23214303    -0.06200
C3898       C  0.85381942  0.90108874  0.25109144    -0.00300
C3899       C  0.88045231  0.90282631  0.26947876    -0.08800
C3900       C  0.90167770  0.87860582  0.26826856    -0.06200
C3901       C  0.89734735  0.85275173  0.24949621    -0.00300
C3902       C  0.87091770  0.85137781  0.23072066    -0.08700
C3903       C  0.86500023  0.82488097  0.20901505     0.61600
H3904       H  0.82924977  0.87445279  0.21819625     0.12300
H3905       H  0.92198658  0.87962286  0.28226456     0.12400
C3906       C  0.88644073  0.92975517  0.29072941     0.61900
F3907       F  0.84083070  0.83064944  0.18944565    -0.23300
F3908       F  0.85812319  0.79920866  0.22608726    -0.20600
F3909       F  0.89030896  0.81933444  0.19099780    -0.20300
F3910       F  0.86140584  0.93513479  0.30916214    -0.20300
F3911       F  0.89261781  0.95552157  0.27338707    -0.20700
F3912       F  0.91101151  0.92449309  0.30988665    -0.23300
C3913       C  0.65286417  0.63009587  0.25924309    -0.06200
C3914       C  0.64695704  0.60214586  0.24443180    -0.00300
C3915       C  0.61853225  0.59810224  0.22937275    -0.08800
C3916       C  0.59691361  0.62186990  0.23089408    -0.06200
C3917       C  0.60259202  0.64943250  0.24651161    -0.00300
C3918       C  0.63121220  0.65368607  0.26104708    -0.08700
C3919       C  0.63875242  0.68214221  0.27980471     0.61600
H3920       H  0.67472027  0.63319138  0.27011038     0.12300
H3921       H  0.57521287  0.61917616  0.21953192     0.12400
C3922       C  0.61116683  0.56971126  0.21051992     0.61900
F3923       F  0.66600470  0.67919501  0.29538859    -0.23300
F3924       F  0.61629777  0.68715505  0.30149966    -0.20600
F3925       F  0.64121731  0.70734482  0.26072040    -0.20300
F3926       F  0.60903917  0.54439049  0.22941106    -0.20300
F3927       F  0.63354147  0.56503087  0.18866721    -0.20700
F3928       F  0.58373573  0.57247622  0.19523630    -0.23300
C3929       C  0.59511900  0.88208975  0.25344306    -0.06200
C3930       C  0.60302627  0.85191641  0.24567957    -0.00300
C3931       C  0.63399918  0.84557960  0.23811782    -0.08800
C3932       C  0.65538815  0.86961150  0.23926182    -0.06200
C3933       C  0.64757254  0.89964354  0.24788031    -0.00300
C3934       C  0.61650293  0.90598605  0.25506093    -0.08700
C3935       C  0.60530233  0.93747383  0.26507953     0.61600
H3936       H  0.57165173  0.88691110  0.25876355     0.12300
H3937       H  0.67881972  0.86493071  0.23348474     0.12400
C3938       C  0.64509179  0.81384278  0.22879395     0.61900
F3939       F  0.57519949  0.93714360  0.27416585    -0.23300
F3940       F  0.60761811  0.95787403  0.24084979    -0.20600
F3941       F  0.62213602  0.94769242  0.28990616    -0.20300
F3942       F  0.62781377  0.80275583  0.20465148    -0.20300
F3943       F  0.64327813  0.79418503  0.25369456    -0.20700
F3944       F  0.67502222  0.81404424  0.21913328    -0.23300
C3945       C  0.90618276  0.74688995  0.11838188    -0.06200
C3946       C  0.89731564  0.74275333  0.14912797    -0.00300
C3947       C  0.86682250  0.73405188  0.15524553    -0.08800
C3948       C  0.84550620  0.73613079  0.13129235    -0.06200
C3949       C  0.85403353  0.74273726  0.10078902    -0.00300
C3950       C  0.88562238  0.74516877  0.09383059    -0.08700
C3951       C  0.89858607  0.74395927  0.06123030     0.61600
H3952       H  0.92986003  0.75066692  0.11340283     0.12300
H3953       H  0.82186794  0.73175607  0.13636610     0.12400
C3954       C  0.85683671  0.72019922  0.18574520     0.61900
F3955       F  0.93001054  0.74316809  0.06109840    -0.23300
F3956       F  0.88984080  0.76925444  0.04441339    -0.20600
F3957       F  0.88867278  0.71764827  0.04669790    -0.20300
F3958       F  0.85457473  0.74252554  0.20806891    -0.20300
F3959       F  0.87746273  0.69813039  0.19490626    -0.20700
F3960       F  0.82882108  0.70611486  0.18337571    -0.23300
C3961       C  0.62753838  0.73164170  0.15174349    -0.06200
C3962       C  0.60052992  0.74745599  0.14497899    -0.00300
C3963       C  0.59760999  0.76172808  0.11568066    -0.08800
C3964       C  0.62247720  0.76135120  0.09537484    -0.06200
C3965       C  0.64963024  0.74598812  0.10232415    -0.00300
C3966       C  0.65184030  0.72988565  0.13069023    -0.08700
C3967       C  0.67893943  0.70983621  0.13851160     0.61600
H3968       H  0.62936639  0.72015458  0.17376263     0.12300
H3969       H  0.62074254  0.77301957  0.07345605     0.12400
C3970       C  0.56842109  0.77692598  0.10530249     0.61900
F3971       F  0.67329915  0.69129450  0.16372425    -0.23300
F3972       F  0.70381640  0.72784117  0.14519046    -0.20600
F3973       F  0.68562623  0.69096536  0.11394534    -0.20300
F3974       F  0.55942565  0.79856481  0.12671765    -0.20300
F3975       F  0.54629793  0.75476040  0.10197393    -0.20700
F3976       F  0.57149577  0.79158015  0.07720412    -0.23300
C3977       C  0.63233333  0.74965425  0.34228478    -0.06200
C3978       C  0.60195537  0.75339528  0.35170540    -0.00300
C3979       C  0.59613514  0.75786651  0.38378734    -0.08800
C3980       C  0.62076126  0.75800286  0.40453104    -0.06200
C3981       C  0.65101116  0.75335954  0.39523130    -0.00300
C3982       C  0.65692626  0.74927515  0.36311602    -0.08700
C3983       C  0.68865882  0.74383768  0.35018835     0.61600
H3984       H  0.63685289  0.74650790  0.31802201     0.12300
H3985       H  0.61631816  0.76166959  0.42873902     0.12400
C3986       C  0.56439202  0.76271775  0.39686653     0.61900
F3987       F  0.68847952  0.73941739  0.31860713    -0.23300
F3988       F  0.70115385  0.71791107  0.36338423    -0.20600
F3989       F  0.70690757  0.76889969  0.35594874    -0.20300
F3990       F  0.54672876  0.73714748  0.39148396    -0.20300
F3991       F  0.55125351  0.78824231  0.38351103    -0.20700
F3992       F  0.56465236  0.76738390  0.42841006    -0.23300
C3993       C  0.88293608  0.77563580  0.35760289    -0.06200
C3994       C  0.89925137  0.74850456  0.35293316    -0.00300
C3995       C  0.89237473  0.72222409  0.37058176    -0.08800
C3996       C  0.86978294  0.72434738  0.39340983    -0.06200
C3997       C  0.85330468  0.75147708  0.39794446    -0.00300
C3998       C  0.85987629  0.77758054  0.37990683    -0.08700
C3999       C  0.84279742  0.80737535  0.38442191     0.61600
H4000       H  0.88841814  0.79530274  0.34349274     0.12300
H4001       H  0.86445978  0.70468720  0.40758925     0.12400
C4002       C  0.90801728  0.69192168  0.36432339     0.61900
F4003       F  0.85480811  0.83059706  0.36656718    -0.23300
F4004       F  0.84436399  0.81632595  0.41495074    -0.20600
F4005       F  0.81276533  0.80347403  0.37616930    -0.20300
F4006       F  0.93855048  0.69417772  0.37122952    -0.20300
F4007       F  0.90467436  0.68432510  0.33359514    -0.20700
F4008       F  0.89576359  0.66845984  0.38167682    -0.23300
C4009       C  0.89494137  0.88163045  0.02745565    -0.06200
C4010       C  0.89462400  0.90305764  0.00340625    -0.00300
C4011       C  0.87177479  0.90092567  0.48055155    -0.08800
C4012       C  0.85081382  0.87652935  0.48199072    -0.06200
C4013       C  0.85133182  0.85477142  0.00581723    -0.00300
C4014       C  0.87306321  0.85825514  0.02982547    -0.08700
C4015       C  0.87364479  0.83961360  0.05929124     0.61600
H4016       H  0.91205622  0.88378040  0.04529227     0.12300
H4017       H  0.83357407  0.87430307  0.46434859     0.12400
C4018       C  0.86948498  0.92415277  0.45461808     0.61900
F4019       F  0.87086504  0.85899936  0.58421321    -0.23300
F4020       F  0.90140272  0.82466399  0.56155899    -0.20600
F4021       F  0.85067495  0.81826909  0.06109253    -0.20300
F4022       F  0.89735841  0.92795251  0.44056328    -0.20300
F4023       F  0.85989353  0.95195214  0.96627066    -0.20700
F4024       F  0.84906372  0.91505834  0.93218274    -0.23300
C4025       C  0.87815278  0.65255972  0.97910013    -0.06200
C4026       C  0.85313658  0.64872750  0.99874811    -0.00300
C4027       C  0.85240854  0.62309538  0.51883443    -0.08800
C4028       C  0.87665314  0.60198601  0.51800585    -0.06200
C4029       C  0.90160795  0.60565891  0.99817183    -0.00300
C4030       C  0.90239859  0.63143677  0.97826303    -0.08700
C4031       C  0.92793500  0.63615662  0.95526886     0.61600
H4032       H  0.87831582  0.67225597  0.96397141     0.12300
H4033       H  0.87628546  0.58223012  0.53305935     0.12400
C4034       C  0.82669523  0.61838707  0.54174608     0.61900
F4035       F  0.92270687  0.66120176  0.43650377    -0.23300
F4036       F  0.93078093  0.61062884  0.43669458    -0.20600
F4037       F  0.95492298  0.64129025  0.97058455    -0.20300
F4038       F  0.80038686  0.61060124  0.52628417    -0.20300
F4039       F  0.82192548  0.64509302  0.05849945    -0.20700
F4040       F  0.83321890  0.59542092  0.06268555    -0.23300
C4041       C  0.62607212  0.90045773  0.01798751    -0.06200
C4042       C  0.59909435  0.89397561  0.00197298    -0.00300
C4043       C  0.59661259  0.86567266  0.48612994    -0.08800
C4044       C  0.62142440  0.84521292  0.48673145    -0.06200
C4045       C  0.64859127  0.85186316  0.00241697    -0.00300
C4046       C  0.65086802  0.88008156  0.01862420    -0.08700
C4047       C  0.67892142  0.88895820  0.03695855     0.61600
H4048       H  0.62767232  0.92206455  0.03008263     0.12300
H4049       H  0.61981995  0.82365941  0.47454868     0.12400
C4050       C  0.56836373  0.85713653  0.46802147     0.61900
F4051       F  0.67419397  0.91503342  0.55446427    -0.23300
F4052       F  0.70269004  0.89522503  0.51676794    -0.20600
F4053       F  0.68701933  0.86549716  0.05661565    -0.20300
F4054       F  0.56155921  0.87994366  0.44703611    -0.20300
F4055       F  0.54423592  0.85317636  0.98773647    -0.20700
F4056       F  0.57226585  0.83026358  0.95155881    -0.23300
C4057       C  0.60105486  0.62580010  0.01503663    -0.06200
C4058       C  0.60662285  0.59843255  0.99901549    -0.00300
C4059       C  0.63479291  0.59497091  0.48327815    -0.08800
C4060       C  0.65593098  0.61929164  0.48403418    -0.06200
C4061       C  0.65010824  0.64688054  0.99975575    -0.00300
C4062       C  0.62221925  0.64993787  0.01604567    -0.08700
C4063       C  0.61471264  0.67806397  0.03523248     0.61600
H4064       H  0.57967684  0.62811179  0.02711125     0.12300
H4065       H  0.67730887  0.61697276  0.47196547     0.12400
C4066       C  0.64241591  0.56624877  0.46500852     0.61900
F4067       F  0.58910541  0.67375249  0.05318316    -0.23300
F4068       F  0.60923918  0.70283251  0.51581461    -0.20600
F4069       F  0.63850847  0.68464704  0.05486479    -0.20300
F4070       F  0.61934029  0.55989674  0.44439102    -0.20300
F4071       F  0.64614538  0.54176912  0.98467950    -0.20700
F4072       F  0.66899417  0.56945481  0.44831482    -0.23300
C4073       C  0.87042635  0.51172349  0.40620677    -0.06200
C4074       C  0.90005653  0.50384011  0.39692640    -0.00300
C4075       C  0.90572788  0.99805588  0.36469764    -0.08800
C4076       C  0.88096009  0.99890969  0.34434652    -0.06200
C4077       C  0.85101148  0.50534630  0.35410553    -0.00300
C4078       C  0.84576463  0.51254962  0.38565986    -0.08700
C4079       C  0.81470873  0.52158380  0.39814576     0.61600
H4080       H  0.86650171  0.51727880  0.43014813     0.12300
H4081       H  0.88505522  0.99505463  0.32013466     0.12400
C4082       C  0.93705903  0.99136267  0.35131773     0.61900
F4083       F  0.81587210  0.53030179  0.42879057    -0.23300
F4084       F  0.79536511  0.99164275  0.39545735    -0.20600
F4085       F  0.80338267  0.54610400  0.38161591    -0.20300
F4086       F  0.94906418  0.96536323  0.36483167    -0.20300
F4087       F  0.95645563  0.51151843  0.35555897    -0.20700
F4088       F  0.93621426  0.98625355  0.31984561    -0.23300
C4089       C  0.60017860  0.51476417  0.37475102    -0.06200
C4090       C  0.60383811  0.49459231  0.39956828    -0.00300
C4091       C  0.63041079  0.97662210  0.40126362    -0.08800
C4092       C  0.65225545  0.97923699  0.37773411    -0.06200
C4093       C  0.64817556  0.49845146  0.35258641    -0.00300
C4094       C  0.62170969  0.51695868  0.35102218    -0.08700
C4095       C  0.61609993  0.53931947  0.32480305     0.61600
H4096       H  0.58009782  0.52907566  0.37419588     0.12300
H4097       H  0.67273099  0.96551937  0.37868360     0.12400
C4098       C  0.63524950  0.95336403  0.42690886     0.61900
F4099       F  0.59103192  0.55769006  0.33022836    -0.23300
F4100       F  0.60968892  0.02212037  0.29740435    -0.20600
F4101       F  0.64092055  0.55822465  0.32109119    -0.20300
F4102       F  0.61003689  0.93471646  0.42938307    -0.20300
F4103       F  0.64025561  0.46600468  0.45381326    -0.20700
F4104       F  0.66014507  0.93479157  0.42131204    -0.23300
C4105       C  0.62067461  0.49007852  0.15639456    -0.06200
C4106       C  0.65041582  0.49738356  0.14731453    -0.00300
C4107       C  0.65657811  0.00245757  0.11525617    -0.08800
C4108       C  0.63200095  0.00170125  0.09463840    -0.06200
C4109       C  0.60185532  0.49598542  0.10396954    -0.00300
C4110       C  0.59650831  0.48816545  0.13536630    -0.08700
C4111       C  0.56618321  0.47623104  0.14694439     0.61600
H4112       H  0.61642495  0.48512348  0.18041540     0.12300
H4113       H  0.63610309  0.00670520  0.07061365     0.12400
C4114       C  0.68814262  0.00880793  0.10242726     0.61900
F4115       F  0.56805517  0.96733580  0.17821592    -0.23300
F4116       F  0.55719166  0.95142678  0.13060828    -0.20600
F4117       F  0.54451619  0.49906894  0.14591211    -0.20300
F4118       F  0.70686376  0.98384172  0.10742063    -0.20300
F4119       F  0.70140042  0.53257604  0.11651073    -0.20700
F4120       F  0.68810005  0.51280570  0.07124235    -0.23300
C4121       C  0.86955236  0.01389805  0.09492190    -0.06200
C4122       C  0.89990866  0.51155855  0.10396928    -0.00300
C4123       C  0.90650622  0.51461871  0.13606635    -0.08800
C4124       C  0.88247923  0.51163586  0.15728350    -0.06200
C4125       C  0.85187419  0.51061048  0.14802230    -0.00300
C4126       C  0.84572151  0.01619875  0.11638155    -0.08700
C4127       C  0.81475603  0.02670166  0.10474677     0.61600
H4128       H  0.86416067  0.01429017  0.07061650     0.12300
H4129       H  0.88760041  0.51124076  0.18164101     0.12400
C4130       C  0.93754643  0.52416021  0.14845278     0.61900
F4131       F  0.81503341  0.53183968  0.07319838    -0.23300
F4132       F  0.80338632  0.54847308  0.12028409    -0.20600
F4133       F  0.79368697  0.00352465  0.10659171    -0.20300
F4134       F  0.94614334  0.55136304  0.13475743    -0.20300
F4135       F  0.95992931  0.00369537  0.14278974    -0.20700
F4136       F  0.93754722  0.03021436  0.17962958    -0.23300
C4137       C  0.51758943  0.65006923  0.37432142    -0.06200
C4138       C  0.49874181  0.64610832  0.34867238    -0.00300
C4139       C  0.98132482  0.61797402  0.34592664    -0.08800
C4140       C  0.98293258  0.59606602  0.36970509    -0.06200
C4141       C  0.50212792  0.60088344  0.39535000    -0.00300
C4142       C  0.52032652  0.62763758  0.39731710    -0.08700
C4143       C  0.54390855  0.63201876  0.42247875     0.61600
H4144       H  0.53100757  0.67075530  0.37575636     0.12300
H4145       H  0.96938502  0.57546655  0.36834268     0.12400
C4146       C  0.96099948  0.61198991  0.31822457     0.61900
F4147       F  0.56287671  0.65649051  0.41631567    -0.23300
F4148       F  0.56180410  0.60607813  0.42476368    -0.20600
F4149       F  0.52982913  0.63762941  0.45035487    -0.20300
F4150       F  0.97861662  0.60696308  0.29235161    -0.20300
F4151       F  0.94212376  0.63678382  0.31319191    -0.20700
F4152       F  0.94289303  0.58648296  0.32238957    -0.23300
C4153       C  0.51580828  0.90020746  0.37406925    -0.06200
C4154       C  0.49674523  0.89556487  0.39953805    -0.00300
C4155       C  0.97997349  0.86718704  0.40349486    -0.08800
C4156       C  0.98147594  0.84595107  0.37912463    -0.06200
C4157       C  0.50062642  0.85170364  0.35157522    -0.00300
C4158       C  0.51855395  0.87857343  0.35030244    -0.08700
C4159       C  0.54122948  0.88424814  0.32462269     0.61600
H4160       H  0.52915587  0.92096533  0.37316027     0.12300
H4161       H  0.96767794  0.82548420  0.37975114     0.12400
C4162       C  0.95983057  0.85997407  0.43097864     0.61900
F4163       F  0.56033720  0.90845249  0.33137409    -0.23300
F4164       F  0.52594519  0.89113917  0.29770626    -0.20600
F4165       F  0.55911465  0.85856287  0.32023886    -0.20300
F4166       F  0.94028623  0.88404512  0.43659791    -0.20300
F4167       F  0.97759556  0.85476117  0.45669551    -0.20700
F4168       F  0.94241239  0.83405017  0.42613721    -0.23300
C4169       C  0.48424121  0.86864870  0.09261011    -0.06200
C4170       C  0.48570031  0.89925121  0.10251174    -0.00300
C4171       C  0.98338886  0.90607024  0.13556987    -0.08800
C4172       C  0.98591075  0.88175093  0.15643557    -0.06200
C4173       C  0.48636338  0.85047330  0.14543416    -0.00300
C4174       C  0.48267632  0.84416566  0.11342038    -0.08700
C4175       C  0.47631346  0.81245176  0.10061128     0.61600
H4176       H  0.48444754  0.86370643  0.06819468     0.12300
H4177       H  0.98585846  0.88677926  0.18083740     0.12400
C4178       C  0.97391483  0.93703838  0.14770866     0.61900
F4179       F  0.00094539  0.79435267  0.10386663    -0.23300
F4180       F  0.95221646  0.80175419  0.11812958    -0.20600
F4181       F  0.46726526  0.81339341  0.07007659    -0.20300
F4182       F  0.95002880  0.94783026  0.13009006    -0.20300
F4183       F  0.49708656  0.95589948  0.14578263    -0.20700
F4184       F  0.46220414  0.93494161  0.17655433    -0.23300
C4185       C  0.52682279  0.62962786  0.14334806    -0.06200
C4186       C  0.50276466  0.65077223  0.14348157    -0.00300
C4187       C  0.98063689  0.64987161  0.12058326    -0.08800
C4188       C  0.98150595  0.62561031  0.09940041    -0.06200
C4189       C  0.50505584  0.60394550  0.09914045    -0.00300
C4190       C  0.52897914  0.60686053  0.12054750    -0.08700
C4191       C  0.55699444  0.58673967  0.11834481     0.61600
H4192       H  0.54424902  0.63147912  0.16085304     0.12300
H4193       H  0.96408181  0.62353646  0.08192559     0.12400
C4194       C  0.95625879  0.67431380  0.11736816     0.61900
F4195       F  0.57995336  0.59689230  0.13746918    -0.23300
F4196       F  0.56800828  0.58683251  0.08847009    -0.20600
F4197       F  0.54969148  0.55718354  0.12657232    -0.20300
F4198       F  0.96964798  0.70199811  0.11027609    -0.20300
F4199       F  0.94012579  0.67710898  0.14450959    -0.20700
F4200       F  0.93590677  0.66755601  0.09405012    -0.23300
O4201       O  0.50374975  0.55166329  0.58572418    -0.86900
O4202       O  0.50210581  0.54838826  0.91087462    -0.87100
O4203       O  0.55423411  0.58476807  0.49790702    -0.88700
O4204       O  0.95365479  0.58902004  0.49823667    -0.87500
O4205       O  0.91565865  0.55324775  0.49864000    -0.87100
O4206       O  0.58955231  0.54632121  0.50055707    -0.88400
O4207       O  0.50259869  0.58589102  0.94777940    -0.86900
O4208       O  0.50421655  0.58811472  0.54754274    -0.86500
Zr4209     Zr  0.50327562  0.56201277  0.49834124     2.84300
O4210       O  0.97126719  0.53122310  0.96848033    -1.08500
O4211       O  0.53253979  0.53073638  0.53077612    -1.09200
C4212       C  0.50453688  0.57955914  0.57595403     1.06200
C4213       C  0.50242740  0.57676198  0.91954256     1.06200
C4214       C  0.58196762  0.57485896  0.49895060     1.09100
C4215       C  0.92533001  0.58114941  0.49808953     1.06900
H4216       H  0.54651645  0.54124155  0.95532100     0.32500
O4217       O  0.53328295  0.52932239  0.96831991    -1.29400
H4218       H  0.95899731  0.54661797  0.54299250     0.32200
O4219       O  0.97101989  0.53290659  0.53054136    -1.31100
O4220       O  0.49863463  0.94801423  0.91416109    -0.86900
O4221       O  0.49430371  0.95143715  0.58737500    -0.88400
O4222       O  0.58821602  0.49493233  0.95181113    -0.87000
O4223       O  0.91503703  0.50313753  0.94968079    -0.87000
O4224       O  0.91455598  0.50667985  0.55085256    -0.86700
O4225       O  0.58654701  0.49611780  0.55124146    -0.86500
O4226       O  0.54696522  0.91075451  0.50186334    -0.86900
O4227       O  0.94685013  0.91630601  0.50295771    -0.86400
O4228       O  0.58504747  0.94631253  0.50061852    -0.87400
O4229       O  0.91152118  0.95495853  0.50161428    -0.86600
O4230       O  0.55191335  0.49586522  0.91394448    -0.87000
O4231       O  0.54969549  0.49867072  0.58806582    -0.86700
O4232       O  0.95153583  0.50665684  0.58752687    -0.86400
O4233       O  0.95206700  0.50174184  0.91296095    -0.86800
O4234       O  0.49596793  0.91155223  0.95193100    -0.87100
O4235       O  0.49185849  0.91436940  0.55047285    -0.88400
Zr4236     Zr  0.50158319  0.49891400  0.93775481     2.83100
Zr4237     Zr  0.50069510  0.50121728  0.56197394     2.83500
Zr4238     Zr  0.56203188  0.49768194  0.50087564     2.84100
Zr4239     Zr  0.93906508  0.50260325  0.50022441     2.83400
Zr4240     Zr  0.49826903  0.93836207  0.50084623     2.84200
O4241       O  0.96846805  0.97192702  0.53213302    -1.09000
O4242       O  0.53084082  0.96706455  0.96969119    -1.08500
C4243       C  0.49661454  0.91991557  0.92350570     1.06200
C4244       C  0.49069997  0.92341786  0.57869728     1.08800
C4245       C  0.57976776  0.49463105  0.92340293     1.06400
C4246       C  0.92404155  0.50282495  0.92133224     1.06700
C4247       C  0.92358816  0.50820559  0.57923824     1.06300
C4248       C  0.57769787  0.49679694  0.57963769     1.05900
C4249       C  0.57531335  0.91845482  0.50121816     1.06300
C4250       C  0.91921732  0.92638440  0.50252812     1.05800
H4251       H  0.54208781  0.95417124  0.54534961     0.32500
O4252       O  0.53042899  0.96758013  0.53218950    -1.30100
H4253       H  0.95547988  0.95801189  0.95717122     0.32500
O4254       O  0.96863186  0.97045899  0.96967820    -1.31400
O4255       O  0.50107085  0.70200281  0.66007599    -0.86900
O4256       O  0.49919144  0.69881466  0.83462907    -0.87100
O4257       O  0.55019622  0.66350582  0.74731931    -0.88700
O4258       O  0.95119914  0.66257683  0.74693391    -0.87500
O4259       O  0.91462281  0.69978222  0.74978449    -0.87100
O4260       O  0.58608615  0.70123053  0.74691412    -0.88400
O4261       O  0.49940624  0.66230243  0.79668929    -0.86900
O4262       O  0.50199294  0.66413582  0.69656611    -0.86500
Zr4263     Zr  0.50036876  0.68838108  0.74761255     2.84300
O4264       O  0.96942245  0.71822453  0.78023052    -1.08500
O4265       O  0.53075400  0.71957220  0.71700192    -1.09200
C4266       C  0.50180309  0.67378510  0.66836931     1.06200
C4267       C  0.49875501  0.67069851  0.82509229     1.06200
C4268       C  0.57802381  0.67293648  0.74708524     1.09100
C4269       C  0.92324676  0.67152800  0.74785628     1.06900
H4270       H  0.54379828  0.70629363  0.79211121     0.32500
O4271       O  0.53095767  0.71904308  0.77936257    -1.29400
H4272       H  0.95662553  0.70644384  0.70572223     0.32200
O4273       O  0.96901741  0.71937044  0.71852271    -1.31100
O4274       O  0.50039144  0.79969389  0.83602439    -0.86900
O4275       O  0.49400071  0.79867136  0.66079961    -0.88400
O4276       O  0.58624198  0.75217683  0.79859922    -0.87000
O4277       O  0.91363691  0.74977728  0.80059795    -0.87000
O4278       O  0.91243085  0.74875543  0.70145981    -0.86700
O4279       O  0.58565532  0.74923253  0.69777510    -0.86500
O4280       O  0.55015984  0.83740481  0.74582489    -0.86900
O4281       O  0.94937278  0.83750692  0.75045134    -0.86400
O4282       O  0.58624218  0.79993122  0.74787115    -0.87400
O4283       O  0.91293433  0.80012594  0.74945939    -0.86600
O4284       O  0.54962848  0.75121818  0.83566250    -0.87000
O4285       O  0.54848897  0.74915406  0.66100980    -0.86700
O4286       O  0.94911540  0.74641890  0.66436114    -0.86400
O4287       O  0.95070676  0.74773088  0.83772848    -0.86000
O4288       O  0.50109642  0.83703930  0.79885776    -0.87100
O4289       O  0.49384467  0.83577507  0.69773765    -0.88400
Zr4290     Zr  0.50007376  0.74974316  0.81072296     2.83100
Zr4291     Zr  0.49929862  0.75031519  0.68693094     2.83500
Zr4292     Zr  0.56098002  0.75064266  0.74823686     2.84100
Zr4293     Zr  0.93851522  0.75012545  0.75042803     2.83400
Zr4294     Zr  0.49998596  0.81249802  0.74847602     2.84200
O4295       O  0.96868408  0.78123623  0.71917401    -1.09000
O4296       O  0.53029655  0.78113351  0.77956659    -1.08500
C4297       C  0.50102626  0.82795272  0.82714940     1.06200
C4298       C  0.49162069  0.82666371  0.66945349     1.08800
C4299       C  0.57762126  0.75230402  0.82714863     1.06400
C4300       C  0.92276828  0.74847516  0.82882280     1.06700
C4301       C  0.92108938  0.74612267  0.67329440     1.06300
C4302       C  0.57659011  0.74882675  0.66942569     1.05900
C4303       C  0.57821637  0.82820928  0.74631470     1.06300
C4304       C  0.92139115  0.82847286  0.74959690     1.05800
H4305       H  0.54276567  0.79436397  0.70361007     0.32500
O4306       O  0.53051889  0.78180536  0.71686877    -1.30100
H4307       H  0.95642960  0.79353236  0.79448180     0.32500
O4308       O  0.96907767  0.78100896  0.78141403    -1.31400
O4309       O  0.83708679  0.00693635  0.70121233    -0.86900
O4310       O  0.66526567  0.00056093  0.69988330    -0.87100
O4311       O  0.75433468  0.95024223  0.66428501    -0.88700
O4312       O  0.74930777  0.55058610  0.66355054    -0.87500
O4313       O  0.74931876  0.58826585  0.70047815    -0.87100
O4314       O  0.75220312  0.91329731  0.70181478    -0.88400
O4315       O  0.70258211  0.99880059  0.66359020    -0.86900
O4316       O  0.80073226  0.00450203  0.66393493    -0.86500
Zr4317     Zr  0.75151576  0.00083452  0.68900468     2.84300
O4318       O  0.71960291  0.53159785  0.71911361    -1.08500
O4319       O  0.78204870  0.97025739  0.72049858    -1.09200
C4320       C  0.82849267  0.00746618  0.67266087     1.06200
C4321       C  0.67450863  0.99920388  0.67168376     1.06200
C4322       C  0.75387085  0.92204133  0.67345775     1.09100
C4323       C  0.74954256  0.57891630  0.67228993     1.06900
H4324       H  0.70845455  0.95689366  0.70669513     0.32500
O4325       O  0.72069268  0.96983745  0.71971569    -1.29400
H4326       H  0.79259614  0.54588362  0.70718693     0.32200
O4327       O  0.78030919  0.53279346  0.71997209    -1.31100
O4328       O  0.66408260  0.99982757  0.80008467    -0.86900
O4329       O  0.83559631  0.00487058  0.80160110    -0.88400
O4330       O  0.70047624  0.91414150  0.75062677    -0.87000
O4331       O  0.69899191  0.58762386  0.74657034    -0.87000
O4332       O  0.79757331  0.58989689  0.75027220    -0.86700
O4333       O  0.80157064  0.91546420  0.75150210    -0.86500
O4334       O  0.74973223  0.95157530  0.83871830    -0.86900
O4335       O  0.74838725  0.55145096  0.83849717    -0.86400
O4336       O  0.75037965  0.91397852  0.80165480    -0.87400
O4337       O  0.74749940  0.58837823  0.80076072    -0.86600
O4338       O  0.66441902  0.95162366  0.74806126    -0.87000
O4339       O  0.83764090  0.95328646  0.75092723    -0.86700
O4340       O  0.83503006  0.55350453  0.75069485    -0.86400
O4341       O  0.66309208  0.54995711  0.74751347    -0.86800
O4342       O  0.70002981  0.00011568  0.83820872    -0.87100
O4343       O  0.79877414  0.00241256  0.83840747    -0.88400
Zr4344     Zr  0.68943177  0.00095129  0.75014022     2.83100
Zr4345     Zr  0.81154356  0.00266815  0.75132509     2.83500
Zr4346     Zr  0.75092834  0.93914333  0.75146112     2.84100
Zr4347     Zr  0.74883994  0.56338015  0.75056769     2.83400
Zr4348     Zr  0.74948795  0.00138966  0.81308646     2.84200
O4349       O  0.77990005  0.53321913  0.78212918    -1.09000
O4350       O  0.71943371  0.96997521  0.78195874    -1.08500
C4351       C  0.67227133  0.99977740  0.82862839     1.06200
C4352       C  0.82674466  0.00406295  0.82995398     1.08800
C4353       C  0.67242242  0.92332107  0.74907769     1.06400
C4354       C  0.67117306  0.57825419  0.74585510     1.06700
C4355       C  0.82571588  0.58162631  0.75026605     1.06300
C4356       C  0.82944722  0.92491433  0.75135926     1.05900
C4357       C  0.75009113  0.92333774  0.82988161     1.06300
C4358       C  0.74765404  0.57945447  0.82911044     1.05800
H4359       H  0.79393591  0.95854913  0.79535137     0.32500
O4360       O  0.78113974  0.97096892  0.78234942    -1.30100
H4361       H  0.70520992  0.54513021  0.79445905     0.32500
O4362       O  0.71840346  0.53255174  0.78196268    -1.31400
O4363       O  0.70211475  0.66263472  0.99871953    -0.86900
O4364       O  0.70110434  0.83718824  0.00232562    -0.87100
O4365       O  0.66564809  0.74772696  0.55011024    -0.88700
O4366       O  0.66591502  0.75143467  0.94845651    -0.87500
O4367       O  0.70302151  0.75318228  0.91188638    -0.87100
O4368       O  0.70210056  0.74687645  0.58775997    -0.88400
O4369       O  0.66474112  0.79982616  0.00085932    -0.86900
O4370       O  0.66528964  0.69963728  0.99889174    -0.86500
Zr4371     Zr  0.69000950  0.74991915  0.99951155     2.84300
O4372       O  0.72085808  0.78195413  0.96983600    -1.08500
O4373       O  0.72073906  0.71849958  0.53020272    -1.09200
C4374       C  0.67401238  0.67135826  0.99919135     1.06200
C4375       C  0.67318369  0.82816885  0.00196678     1.06200
C4376       C  0.67419984  0.74668164  0.57863096     1.09100
C4377       C  0.67493000  0.75257914  0.92002753     1.06900
H4378       H  0.70765340  0.79231302  0.54520096     0.32500
O4379       O  0.72041664  0.78010890  0.53198358    -1.29400
H4380       H  0.70833474  0.70765578  0.95429859     0.32200
O4381       O  0.72089317  0.72009005  0.96752801    -1.31100
O4382       O  0.80008433  0.83832160  0.00396226    -0.86900
O4383       O  0.80105315  0.66354019  0.99796186    -0.88400
O4384       O  0.75128083  0.79734371  0.58968205    -0.87000
O4385       O  0.75074976  0.80273301  0.91414557    -0.87000
O4386       O  0.75208435  0.70320039  0.91096469    -0.86700
O4387       O  0.75134896  0.69776374  0.58575269    -0.86500
O4388       O  0.83743991  0.74768864  0.54902498    -0.86900
O4389       O  0.83845322  0.75137528  0.95009660    -0.86400
O4390       O  0.80155336  0.74593099  0.58677397    -0.87400
O4391       O  0.80159640  0.75233584  0.91269271    -0.86600
O4392       O  0.75111575  0.83555945  0.55341490    -0.87000
O4393       O  0.75082618  0.66171263  0.54729847    -0.86700
O4394       O  0.75139907  0.66513144  0.94752011    -0.86400
O4395       O  0.75001659  0.83893958  0.95261699    -0.86800
O4396       O  0.83753595  0.80166772  0.00344156    -0.87100
O4397       O  0.83761238  0.70086652  0.99827179    -0.88400
Zr4398     Zr  0.75095770  0.81233575  0.00208332     2.83100
Zr4399     Zr  0.75145902  0.68860783  0.99819159     2.83500
Zr4400     Zr  0.75150852  0.74849436  0.56222686     2.84100
Zr4401     Zr  0.75192458  0.75222117  0.93786292     2.83400
Zr4402     Zr  0.81270051  0.75109644  0.99969435     2.84200
O4403       O  0.78243602  0.72035108  0.96801628    -1.09000
O4404       O  0.78204055  0.78074012  0.53226808    -1.08500
C4405       C  0.82821424  0.82984372  0.00467362     1.06200
C4406       C  0.82895235  0.67256778  0.99831368     1.08800
C4407       C  0.75102731  0.82577325  0.58152882     1.06400
C4408       C  0.74996560  0.83057888  0.92406323     1.06700
C4409       C  0.75170822  0.67490838  0.91951243     1.06300
C4410       C  0.75077020  0.66987701  0.57585333     1.05900
C4411       C  0.82944899  0.74564042  0.57733868     1.06300
C4412       C  0.82951302  0.75185076  0.92179781     1.05800
H4413       H  0.79479366  0.70560814  0.54220068     0.32500
O4414       O  0.78220407  0.71885539  0.52988133    -1.30100
H4415       H  0.79484106  0.79631596  0.95716997     0.32500
O4416       O  0.78217992  0.78303232  0.96958068    -1.31400
C4417       C  0.72733586  0.60242473  0.62564912    -0.06200
C4418       C  0.75034573  0.60255017  0.64793764    -0.00300
C4419       C  0.77407331  0.62430218  0.64590182    -0.08800
C4420       C  0.77337654  0.64582444  0.62183033    -0.06200
C4421       C  0.75047061  0.64548580  0.59938061    -0.00300
C4422       C  0.72735000  0.62302360  0.60076122    -0.08700
C4423       C  0.70285946  0.62064446  0.57619120     0.61600
H4424       H  0.70919696  0.58604713  0.62801591     0.12300
H4425       H  0.79091277  0.66308978  0.62020084     0.12400
C4426       C  0.80020223  0.62455761  0.66873194     0.61900
F4427       F  0.68119446  0.59896702  0.58360852    -0.23300
F4428       F  0.71582172  0.61226028  0.54845658    -0.20600
F4429       F  0.68827296  0.64838182  0.57260683    -0.20300
F4430       F  0.81320820  0.59577825  0.67047727    -0.20300
F4431       F  0.78968078  0.63302861  0.69746921    -0.20700
F4432       F  0.82264617  0.64498052  0.66022598    -0.23300
C4433       C  0.77462918  0.87140777  0.60483582    -0.06200
C4434       C  0.75158139  0.84933537  0.60612277    -0.00300
C4435       C  0.72959172  0.85090364  0.62994976    -0.08800
C4436       C  0.73133634  0.87504843  0.65142153    -0.06200
C4437       C  0.75410711  0.89745280  0.64980468    -0.00300
C4438       C  0.77664882  0.89519147  0.62661823    -0.08700
C4439       C  0.80332029  0.91701625  0.62548246     0.61600
H4440       H  0.79136121  0.86961891  0.58663624     0.12300
H4441       H  0.71458866  0.87688064  0.66959685     0.12400
C4442       C  0.70380895  0.82795348  0.63220425     0.61900
F4443       F  0.82416681  0.90884253  0.60306774    -0.23300
F4444       F  0.81806195  0.91718869  0.65361152    -0.20600
F4445       F  0.79312474  0.94606230  0.61884442    -0.20300
F4446       F  0.71523379  0.79909790  0.63814716    -0.20300
F4447       F  0.68773006  0.82734667  0.60489601    -0.20700
F4448       F  0.68372970  0.83529725  0.65560312    -0.23300
C4449       C  0.72276259  0.88780206  0.86443251    -0.06200
C4450       C  0.75047892  0.89977910  0.85416765    -0.00300
C4451       C  0.77801140  0.88931489  0.86721320    -0.08800
C4452       C  0.77691974  0.86714503  0.89066002    -0.06200
C4453       C  0.74926583  0.85486867  0.90061908    -0.00300
C4454       C  0.72170792  0.86519193  0.88751250    -0.08700
C4455       C  0.69150645  0.85216205  0.89793006     0.61600
H4456       H  0.70199351  0.89618123  0.85406569     0.12300
H4457       H  0.79767293  0.85893633  0.90116838     0.12400
C4458       C  0.80828351  0.90128195  0.85585753     0.61900
F4459       F  0.66730275  0.86592208  0.88303136    -0.23300
F4460       F  0.68796825  0.85662526  0.92926562    -0.20600
F4461       F  0.69062761  0.82116738  0.89171400    -0.20300
F4462       F  0.80961491  0.93260695  0.85996969    -0.20300
F4463       F  0.81150049  0.89458942  0.82488778    -0.20700
F4464       F  0.83240553  0.88829733  0.87151172    -0.23300
C4465       C  0.77600655  0.61398102  0.86303972    -0.06200
C4466       C  0.74781357  0.60347721  0.85269331    -0.00300
C4467       C  0.72073797  0.61667989  0.86407130    -0.08800
C4468       C  0.72286973  0.64063915  0.88554807    -0.06200
C4469       C  0.75114890  0.65146298  0.89543234    -0.00300
C4470       C  0.77817358  0.63827867  0.88402203    -0.08700
C4471       C  0.80899916  0.65011918  0.89388590     0.61600
H4472       H  0.79633976  0.60297119  0.85450621     0.12300
H4473       H  0.70252630  0.65090493  0.89506319     0.12400
C4474       C  0.68996535  0.60494932  0.85398229     0.61900
F4475       F  0.83245320  0.63454467  0.87953461    -0.23300
F4476       F  0.81236971  0.64678883  0.92536635    -0.20600
F4477       F  0.81134000  0.68074074  0.88630237    -0.20300
F4478       F  0.68721063  0.57449000  0.86209178    -0.20300
F4479       F  0.68714506  0.60771590  0.82241983    -0.20700
F4480       F  0.66643379  0.62106118  0.86759379    -0.23300
C4481       C  0.87177390  0.65485097  0.76322144    -0.06200
C4482       C  0.89871166  0.64799162  0.74729944    -0.00300
C4483       C  0.90066345  0.61993800  0.73081207    -0.08800
C4484       C  0.87606108  0.59942136  0.73217723    -0.06200
C4485       C  0.84949146  0.60592837  0.74887595    -0.00300
C4486       C  0.84703549  0.63458229  0.76419926    -0.08700
C4487       C  0.81902496  0.64372739  0.78238233     0.61600
H4488       H  0.87028779  0.67645706  0.77532209     0.12300
H4489       H  0.87744215  0.57778891  0.72008059     0.12400
C4490       C  0.92806034  0.61152422  0.71131801     0.61900
F4491       F  0.82327715  0.67060227  0.79873043    -0.23300
F4492       F  0.81206488  0.62102219  0.80324285    -0.20600
F4493       F  0.79483747  0.64818317  0.76261150    -0.20300
F4494       F  0.95264206  0.60541399  0.73010277    -0.20300
F4495       F  0.93504207  0.63519209  0.69149108    -0.20700
F4496       F  0.92272681  0.58583157  0.69356287    -0.23300
C4497       C  0.84964725  0.87553072  0.73199338    -0.06200
C4498       C  0.85378400  0.90108499  0.75108965    -0.00300
C4499       C  0.88035308  0.90274949  0.76957693    -0.08800
C4500       C  0.90158025  0.87853204  0.76834762    -0.06200
C4501       C  0.89733328  0.85277538  0.74942278    -0.00300
C4502       C  0.87099541  0.85149957  0.73051033    -0.08700
C4503       C  0.86524734  0.82516783  0.70855564     0.61600
H4504       H  0.82935110  0.87460946  0.71795701     0.12300
H4505       H  0.92183361  0.87948206  0.78243152     0.12400
C4506       C  0.88628847  0.92961589  0.79092180     0.61900
F4507       F  0.84114928  0.83103329  0.68892415    -0.23300
F4508       F  0.85836984  0.79933134  0.72536828    -0.20600
F4509       F  0.89065555  0.81984581  0.69061439    -0.20300
F4510       F  0.86120227  0.93496851  0.80928852    -0.20300
F4511       F  0.89253153  0.95542122  0.77366430    -0.20700
F4512       F  0.91079820  0.92428881  0.81014172    -0.23300
C4513       C  0.65282475  0.63009031  0.75929941    -0.06200
C4514       C  0.64692435  0.60215241  0.74446091    -0.00300
C4515       C  0.61850127  0.59811443  0.72939749    -0.08800
C4516       C  0.59688910  0.62188765  0.73091106    -0.06200
C4517       C  0.60256869  0.64944712  0.74653271    -0.00300
C4518       C  0.63117698  0.65368616  0.76109429    -0.08700
C4519       C  0.63870519  0.68213355  0.77986813     0.61600
H4520       H  0.67466940  0.63316777  0.77019915     0.12300
H4521       H  0.57519199  0.61920074  0.71954009     0.12400
C4522       C  0.61112589  0.56971752  0.71055908     0.61900
F4523       F  0.66593315  0.67916617  0.79549142    -0.23300
F4524       F  0.61622244  0.68715612  0.80153094    -0.20600
F4525       F  0.64120927  0.70733725  0.76079043    -0.20300
F4526       F  0.60900945  0.54440494  0.72946269    -0.20300
F4527       F  0.63348870  0.56502915  0.68869594    -0.20700
F4528       F  0.58368547  0.57247529  0.69529079    -0.23300
C4529       C  0.59508502  0.88211396  0.75349133    -0.06200
C4530       C  0.60298509  0.85195042  0.74568306    -0.00300
C4531       C  0.63394455  0.84562693  0.73806384    -0.08800
C4532       C  0.65534214  0.86964939  0.73924477    -0.06200
C4533       C  0.64753578  0.89967294  0.74790338    -0.00300
C4534       C  0.61646853  0.90601219  0.75510199    -0.08700
C4535       C  0.60526701  0.93750147  0.76511447     0.61600
H4536       H  0.57162234  0.88692723  0.75883836     0.12300
H4537       H  0.67876907  0.86497094  0.73344593     0.12400
C4538       C  0.64500388  0.81391833  0.72860830     0.61900
F4539       F  0.57516518  0.93717196  0.77420516    -0.23300
F4540       F  0.60757697  0.95789339  0.74087702    -0.20600
F4541       F  0.62210382  0.94773002  0.78993413    -0.20300
F4542       F  0.62764179  0.80290532  0.70449351    -0.20300
F4543       F  0.64327341  0.79418552  0.75345439    -0.20700
F4544       F  0.67490001  0.81415079  0.71884088    -0.23300
C4545       C  0.90621847  0.74683076  0.61834776    -0.06200
C4546       C  0.89735332  0.74273005  0.64909853    -0.00300
C4547       C  0.86686382  0.73403479  0.65523366    -0.08800
C4548       C  0.84553870  0.73612546  0.63129625    -0.06200
C4549       C  0.85406249  0.74270291  0.60078766    -0.00300
C4550       C  0.88565041  0.74507893  0.59380852    -0.08700
C4551       C  0.89860047  0.74376258  0.56120675     0.61600
H4552       H  0.92989453  0.75060397  0.61335606     0.12300
H4553       H  0.82189884  0.73177931  0.63638975     0.12400
C4554       C  0.85688704  0.72017259  0.68573111     0.61900
F4555       F  0.93002178  0.74285055  0.56107165    -0.23300
F4556       F  0.88994448  0.76906104  0.54434505    -0.20600
F4557       F  0.88858859  0.71746079  0.54672618    -0.20300
F4558       F  0.85448865  0.74251708  0.70802235    -0.20300
F4559       F  0.87758606  0.69820387  0.69496111    -0.20700
F4560       F  0.82894055  0.70595608  0.68331769    -0.23300
C4561       C  0.62758084  0.73177127  0.65180036    -0.06200
C4562       C  0.60056531  0.74756046  0.64501360    -0.00300
C4563       C  0.59766524  0.76185685  0.61572666    -0.08800
C4564       C  0.62254975  0.76150395  0.59544184    -0.06200
C4565       C  0.64969594  0.74613012  0.60239718    -0.00300
C4566       C  0.65189920  0.73003517  0.63076887    -0.08700
C4567       C  0.67900587  0.71000916  0.63862127     0.61600
H4568       H  0.62939862  0.72028071  0.67381848     0.12300
H4569       H  0.62082696  0.77318064  0.57352638     0.12400
C4570       C  0.56847124  0.77703081  0.60532903     0.61900
F4571       F  0.67335654  0.69146433  0.66382965    -0.23300
F4572       F  0.70386404  0.72803344  0.64531862    -0.20600
F4573       F  0.68572911  0.69114161  0.61406788    -0.20300
F4574       F  0.55941527  0.79863044  0.62675793    -0.20300
F4575       F  0.54638348  0.75483815  0.60194382    -0.20700
F4576       F  0.57156557  0.79172404  0.57725368    -0.23300
C4577       C  0.63228017  0.74967135  0.84225301    -0.06200
C4578       C  0.60190529  0.75338252  0.85169060    -0.00300
C4579       C  0.59608930  0.75779351  0.88377948    -0.08800
C4580       C  0.62072566  0.75795196  0.90450935    -0.06200
C4581       C  0.65097561  0.75332835  0.89519298    -0.00300
C4582       C  0.65687807  0.74925881  0.86307313    -0.08700
C4583       C  0.68859592  0.74377984  0.85012580     0.61600
H4584       H  0.63679284  0.74655879  0.81798480     0.12300
H4585       H  0.61628747  0.76159881  0.92872111     0.12400
C4586       C  0.56433660  0.76251492  0.89688305     0.61900
F4587       F  0.68839272  0.73936661  0.81854292    -0.23300
F4588       F  0.70105804  0.71783125  0.86330874    -0.20600
F4589       F  0.70688699  0.76881009  0.85587895    -0.20300
F4590       F  0.54675498  0.73689984  0.89143549    -0.20300
F4591       F  0.55110914  0.78803112  0.88360130    -0.20700
F4592       F  0.56459392  0.76709988  0.92843878    -0.23300
C4593       C  0.88295668  0.77576936  0.85764875    -0.06200
C4594       C  0.89922048  0.74862310  0.85288938    -0.00300
C4595       C  0.89232522  0.72230642  0.87047218    -0.08800
C4596       C  0.86970919  0.72438061  0.89327967    -0.06200
C4597       C  0.85326855  0.75152115  0.89789514    -0.00300
C4598       C  0.85990886  0.77768365  0.87996832    -0.08700
C4599       C  0.84290263  0.80750308  0.88460340     0.61600
H4600       H  0.88846688  0.79547025  0.84359770     0.12300
H4601       H  0.86434931  0.70468127  0.90738958     0.12400
C4602       C  0.90800782  0.69202958  0.86418336     0.61900
F4603       F  0.85508224  0.83080824  0.86697735    -0.23300
F4604       F  0.84433972  0.81624834  0.91519909    -0.20600
F4605       F  0.81290109  0.80374705  0.87616868    -0.20300
F4606       F  0.93854228  0.69432911  0.87107090    -0.20300
F4607       F  0.90465984  0.68444816  0.83345140    -0.20700
F4608       F  0.89580809  0.66853900  0.88153443    -0.23300
C4609       C  0.89501850  0.88156789  0.52744493    -0.06200
C4610       C  0.89465489  0.90302446  0.50342081    -0.00300
C4611       C  0.87177182  0.90094195  0.98050844    -0.08800
C4612       C  0.85080668  0.87654462  0.98193571    -0.06200
C4613       C  0.85137682  0.85473639  0.50585158    -0.00300
C4614       C  0.87314828  0.85818769  0.52982525    -0.08700
C4615       C  0.87377783  0.83950758  0.55926694     0.61600
H4616       H  0.91216238  0.88369915  0.54525519     0.12300
H4617       H  0.83359264  0.87430395  0.96426966     0.12400
C4618       C  0.86951008  0.92415945  0.95456386     0.61900
F4619       F  0.87067387  0.85913532  0.08420703    -0.23300
F4620       F  0.90127538  0.82479146  0.06165694    -0.20600
F4621       F  0.85080056  0.81817348  0.56108888    -0.20300
F4622       F  0.89739950  0.92796407  0.94054416    -0.20300
F4623       F  0.85989010  0.95194404  0.46634665    -0.20700
F4624       F  0.84900755  0.91506475  0.43225997    -0.23300
C4625       C  0.87816609  0.65255960  0.47909199    -0.06200
C4626       C  0.85313508  0.64869895  0.49871609    -0.00300
C4627       C  0.85242376  0.62315790  0.01890962    -0.08800
C4628       C  0.87664944  0.60202694  0.01807101    -0.06200
C4629       C  0.90163544  0.60565616  0.49814483    -0.00300
C4630       C  0.90242379  0.63144847  0.47825449    -0.08700
C4631       C  0.92796944  0.63619628  0.45527780     0.61600
H4632       H  0.87833282  0.67227092  0.46398336     0.12300
H4633       H  0.87628531  0.58228668  0.03314571     0.12400
C4634       C  0.82674529  0.61851105  0.04187502     0.61900
F4635       F  0.92266427  0.66113889  0.93646487    -0.23300
F4636       F  0.93073924  0.61056715  0.93671558    -0.20600
F4637       F  0.95495079  0.64131284  0.47060998    -0.20300
F4638       F  0.80041830  0.61066745  0.02647600    -0.20300
F4639       F  0.82186496  0.64491960  0.55844613    -0.20700
F4640       F  0.83312657  0.59522828  0.56249215    -0.23300
C4641       C  0.62612483  0.90054278  0.51785660    -0.06200
C4642       C  0.59911117  0.89401619  0.50192392    -0.00300
C4643       C  0.59663049  0.86568231  0.98608395    -0.08800
C4644       C  0.62143896  0.84522205  0.98667806    -0.06200
C4645       C  0.64861459  0.85189888  0.50238868    -0.00300
C4646       C  0.65092369  0.88017057  0.51849914    -0.08700
C4647       C  0.67902150  0.88912395  0.53672379     0.61600
H4648       H  0.62775248  0.92218445  0.52988366     0.12300
H4649       H  0.61986433  0.82370533  0.97442490     0.12400
C4650       C  0.56842490  0.85720553  0.96787909     0.61900
F4651       F  0.67405944  0.91481243  0.05477065    -0.23300
F4652       F  0.70265266  0.89510958  0.01709538    -0.20600
F4653       F  0.68719108  0.86573569  0.55643742    -0.20300
F4654       F  0.56166073  0.88008830  0.94696424    -0.20300
F4655       F  0.54421713  0.85318403  0.48794805    -0.20700
F4656       F  0.57216092  0.83013467  0.45179394    -0.23300
C4657       C  0.60103022  0.62584490  0.51494844    -0.06200
C4658       C  0.60664077  0.59844381  0.49899834    -0.00300
C4659       C  0.63474448  0.59497275  0.98323923    -0.08800
C4660       C  0.65589426  0.61928232  0.98399836    -0.06200
C4661       C  0.65010572  0.64691853  0.49972679    -0.00300
C4662       C  0.62217490  0.65000190  0.51593921    -0.08700
C4663       C  0.61459361  0.67818325  0.53501487     0.61600
H4664       H  0.57962918  0.62817123  0.52697736     0.12300
H4665       H  0.67724778  0.61697864  0.97188206     0.12400
C4666       C  0.64231933  0.56627440  0.96491148     0.61900
F4667       F  0.58891939  0.67392435  0.55287901    -0.23300
F4668       F  0.60929241  0.70277074  0.01612737    -0.20600
F4669       F  0.63831608  0.68482654  0.55471916    -0.20300
F4670       F  0.61919271  0.55994962  0.94434403    -0.20300
F4671       F  0.64619693  0.54176952  0.48481749    -0.20700
F4672       F  0.66885632  0.56950126  0.94815523    -0.23300
C4673       C  0.87042364  0.51186382  0.90619653    -0.06200
C4674       C  0.90003740  0.50390578  0.89692752    -0.00300
C4675       C  0.90571734  0.99803870  0.86473184    -0.08800
C4676       C  0.88095801  0.99891942  0.84437067    -0.06200
C4677       C  0.85100377  0.50548278  0.85409725    -0.00300
C4678       C  0.84576328  0.51270600  0.88564823    -0.08700
C4679       C  0.81471104  0.52174848  0.89813530     0.61600
H4680       H  0.86650693  0.51744159  0.93013419     0.12300
H4681       H  0.88505904  0.99505881  0.82016108     0.12400
C4682       C  0.93704426  0.99127329  0.85137737     0.61900
F4683       F  0.81588949  0.53052277  0.92876370    -0.23300
F4684       F  0.79534670  0.99172715  0.89546715    -0.20600
F4685       F  0.80335729  0.54623176  0.88156948    -0.20300
F4686       F  0.94900264  0.96528012  0.86494742    -0.20300
F4687       F  0.95649932  0.51131595  0.85556282    -0.20700
F4688       F  0.93620376  0.98610387  0.81991605    -0.23300
C4689       C  0.60018447  0.51474659  0.87478125    -0.06200
C4690       C  0.60383627  0.49454403  0.89957380    -0.00300
C4691       C  0.63041525  0.97651964  0.90122818    -0.08800
C4692       C  0.65225860  0.97916608  0.87770155    -0.06200
C4693       C  0.64817407  0.49844388  0.85259314    -0.00300
C4694       C  0.62171381  0.51696138  0.85105346    -0.08700
C4695       C  0.61610875  0.53935852  0.82486531     0.61600
H4696       H  0.58011004  0.52906788  0.87424568     0.12300
H4697       H  0.67274899  0.96547081  0.87864831     0.12400
C4698       C  0.63525520  0.95322505  0.92683908     0.61900
F4699       F  0.59104804  0.55773166  0.83031861    -0.23300
F4700       F  0.60962438  0.02186739  0.79734361    -0.20600
F4701       F  0.64093507  0.55825876  0.82117765    -0.20300
F4702       F  0.61006031  0.93454540  0.92925056    -0.20300
F4703       F  0.64015134  0.46581991  0.95379228    -0.20700
F4704       F  0.66017758  0.93469018  0.92123559    -0.23300
C4705       C  0.62066735  0.49003177  0.65638537    -0.06200
C4706       C  0.65040195  0.49738535  0.64732343    -0.00300
C4707       C  0.65656634  0.00235650  0.61524893    -0.08800
C4708       C  0.63198857  0.00159327  0.59463174    -0.06200
C4709       C  0.60185839  0.49599546  0.60396303    -0.00300
C4710       C  0.59650433  0.48814419  0.63535046    -0.08700
C4711       C  0.56616628  0.47622644  0.64691323     0.61600
H4712       H  0.61641877  0.48503505  0.68039798     0.12300
H4713       H  0.63610172  0.00654066  0.57059743     0.12400
C4714       C  0.68814206  0.00862375  0.60240587     0.61900
F4715       F  0.56800478  0.96745113  0.67827008    -0.23300
F4716       F  0.55713946  0.95146206  0.63069042    -0.20600
F4717       F  0.54452559  0.49909275  0.64591015    -0.20300
F4718       F  0.70682720  0.98364689  0.60748544    -0.20300
F4719       F  0.70128205  0.53279947  0.61665451    -0.20700
F4720       F  0.68807653  0.51312632  0.57131358    -0.23300
C4721       C  0.86954199  0.01376587  0.59493133    -0.06200
C4722       C  0.89995732  0.51144870  0.60397937    -0.00300
C4723       C  0.90653519  0.51450949  0.63608065    -0.08800
C4724       C  0.88249429  0.51152960  0.65728432    -0.06200
C4725       C  0.85189122  0.51052971  0.64800848    -0.00300
C4726       C  0.84571177  0.01607930  0.61638912    -0.08700
C4727       C  0.81473402  0.02652463  0.60473595     0.61600
H4728       H  0.86414600  0.01410013  0.57062620     0.12300
H4729       H  0.88760208  0.51113752  0.68164461     0.12400
C4730       C  0.93756349  0.52406568  0.64848569     0.61900
F4731       F  0.81512597  0.53172347  0.57313391    -0.23300
F4732       F  0.80349129  0.54845615  0.62018805    -0.20600
F4733       F  0.79368729  0.00332704  0.60663275    -0.20300
F4734       F  0.94613999  0.55128861  0.63481913    -0.20300
F4735       F  0.95992968  0.00372849  0.64278960    -0.20700
F4736       F  0.93753760  0.03025866  0.67961664    -0.23300
C4737       C  0.51753500  0.65008419  0.87431443    -0.06200
C4738       C  0.49867582  0.64612527  0.84867408    -0.00300
C4739       C  0.98126240  0.61802151  0.84596182    -0.08800
C4740       C  0.98285834  0.59610009  0.86973069    -0.06200
C4741       C  0.50210425  0.60088468  0.89534261    -0.00300
C4742       C  0.52030014  0.62764166  0.89729782    -0.08700
C4743       C  0.54391220  0.63201360  0.92243034     0.61600
H4744       H  0.53094841  0.67077340  0.87574691     0.12300
H4745       H  0.96928787  0.57551545  0.86837002     0.12400
C4746       C  0.96095903  0.61204287  0.81824393     0.61900
F4747       F  0.56289454  0.65646573  0.91623192    -0.23300
F4748       F  0.56178960  0.60605973  0.92470894    -0.20600
F4749       F  0.52986485  0.63764769  0.95031811    -0.20300
F4750       F  0.97860404  0.60699433  0.79239469    -0.20300
F4751       F  0.94210482  0.63684689  0.81318019    -0.20700
F4752       F  0.94283255  0.58654895  0.82239852    -0.23300
C4753       C  0.51583785  0.90017780  0.87409050    -0.06200
C4754       C  0.49673432  0.89555920  0.89953337    -0.00300
C4755       C  0.97993458  0.86723335  0.90344564    -0.08800
C4756       C  0.98143473  0.84600935  0.87906521    -0.06200
C4757       C  0.50055849  0.85173531  0.85153193    -0.00300
C4758       C  0.51854069  0.87856859  0.85029516    -0.08700
C4759       C  0.54121279  0.88423566  0.82461100     0.61600
H4760       H  0.52923757  0.92090309  0.87321779     0.12300
H4761       H  0.96763434  0.82554376  0.87968249     0.12400
C4762       C  0.95980181  0.86000511  0.93093089     0.61900
F4763       F  0.56035343  0.90841025  0.83137272    -0.23300
F4764       F  0.52592183  0.89116863  0.79770881    -0.20600
F4765       F  0.55906299  0.85853120  0.82019480    -0.20300
F4766       F  0.94028238  0.88408546  0.93659449    -0.20300
F4767       F  0.97758125  0.85474683  0.95662803    -0.20700
F4768       F  0.94235767  0.83410318  0.92606669    -0.23300
C4769       C  0.48414708  0.86861038  0.59256492    -0.06200
C4770       C  0.48563396  0.89921613  0.60245689    -0.00300
C4771       C  0.98334231  0.90604290  0.63554118    -0.08800
C4772       C  0.98588041  0.88172172  0.65640145    -0.06200
C4773       C  0.48637068  0.85045798  0.64539448    -0.00300
C4774       C  0.48262850  0.84413446  0.61339067    -0.08700
C4775       C  0.47626565  0.81240781  0.60061578     0.61600
H4776       H  0.48430692  0.86366094  0.56815009     0.12300
H4777       H  0.98580902  0.88674466  0.68080417     0.12400
C4778       C  0.97382774  0.93700200  0.64768164     0.61900
F4779       F  0.00096526  0.79434692  0.60375370    -0.23300
F4780       F  0.95226006  0.80171073  0.61811384    -0.20600
F4781       F  0.46712737  0.81332513  0.57010931    -0.20300
F4782       F  0.94993290  0.94777661  0.63006320    -0.20300
F4783       F  0.49705528  0.95585841  0.64575642    -0.20700
F4784       F  0.46213751  0.93489933  0.67649122    -0.23300
C4785       C  0.52685576  0.62963930  0.64335661    -0.06200
C4786       C  0.50278282  0.65076511  0.64349371    -0.00300
C4787       C  0.98064577  0.64981880  0.62062726    -0.08800
C4788       C  0.98155061  0.62556729  0.59943363    -0.06200
C4789       C  0.50511296  0.60395798  0.59913600    -0.00300
C4790       C  0.52903398  0.60688448  0.62054580    -0.08700
C4791       C  0.55707784  0.58680635  0.61832358     0.61600
H4792       H  0.54428065  0.63150288  0.66086165     0.12300
H4793       H  0.96411428  0.62346076  0.58197550     0.12400
C4794       C  0.95619545  0.67419570  0.61745936     0.61900
F4795       F  0.58000136  0.59693624  0.63750523    -0.23300
F4796       F  0.56812297  0.58700037  0.58846186    -0.20600
F4797       F  0.54980944  0.55721602  0.62645856    -0.20300
F4798       F  0.96949644  0.70193192  0.61040602    -0.20300
F4799       F  0.94006549  0.67690306  0.64461080    -0.20700
F4800       F  0.93585399  0.66741267  0.59413920    -0.23300
loop_ 
_geom_bond_atom_site_label_1 
_geom_bond_atom_site_label_2 
_geom_bond_distance 
_geom_bond_site_symmetry_2 
_ccdc_geom_bond_type 
O1          Zr37   2.439       .  S
O1           C12   1.292       .  A
O2          Zr36   2.453   1_545  S
O2           C13   1.295       .  A
O3           Zr9   2.455       .  S
O3           C14   1.296       .  A
O4        Zr2409   2.465       .  S
O4           C15   1.296       .  A
O5          Zr39   2.448   1_556  S
O5           C15   1.295       .  A
O6          Zr38   2.457   1_545  S
O6           C14   1.294   1_554  A
O7         Zr609   2.432       .  S
O7           C13   1.289       .  A
O8           Zr9   2.429   1_554  S
O8           C12   1.291       .  A
Zr9        O2404   2.462   1_455  S
Zr9         O607   2.431       .  S
Zr9          O11   2.343   1_556  S
Zr9        O3010   2.337   1_455  S
Zr9        O2419   2.338   1_456  S
Zr9         O617   2.342       .  S
O10       Zr3009   2.336       .  S
O10       Zr2436   2.342   1_545  S
O10        Zr639   2.343       .  S
O11         Zr37   2.338       .  S
O11         Zr38   2.333   1_545  S
C12         C589   1.471       .  S
C13         C541   1.488       .  S
C14         C458   1.502   1_556  S
C15         C429   1.500       .  S
H16          O17   0.965       .  S
O17         Zr36   2.345   1_545  S
O17        Zr609   2.342       .  S
O17        Zr638   2.345   1_545  S
H18          O19   0.965       .  S
O19         Zr39   2.341       .  S
O19       Zr2409   2.342   1_554  S
O19       Zr2437   2.343       .  S
O20       Zr1236   2.459   1_655  S
O20          C43   1.297       .  A
O21       Zr1237   2.451   1_655  S
O21          C44   1.293       .  A
O22        Zr638   2.433       .  S
O22          C45   1.290       .  A
O23        Zr639   2.438       .  S
O23          C46   1.294       .  A
O24         Zr39   2.455       .  S
O24          C47   1.297       .  A
O25         Zr38   2.444       .  S
O25          C48   1.295       .  A
O26         Zr40   2.453   1_455  S
O26          C49   1.294       .  A
O27       Zr2440   2.446       .  S
O27          C50   1.293       .  A
O28       Zr1238   2.439       .  S
O28          C49   1.293       .  A
O29       Zr1239   2.455   1_554  S
O29          C50   1.295       .  A
O30         Zr36   2.449       .  S
O30          C45   1.295       .  A
O31         Zr37   2.439   1_565  S
O31          C48   1.289       .  A
O32       Zr2437   2.428       .  S
O32          C47   1.286       .  A
O33       Zr2436   2.433   1_545  S
O33          C46   1.289       .  A
O34        Zr640   2.422       .  S
O34          C43   1.287       .  A
O35         Zr40   2.412       .  S
O35          C44   1.288       .  A
Zr36       O1220   2.463   1_455  S
Zr36       O2433   2.428   1_465  S
Zr36       O2410   2.346   1_465  S
Zr36       O1242   2.337       .  S
Zr36       O3654   2.345   1_455  S
Zr37       O1221   2.448   1_445  S
Zr37       O2432   2.430   1_455  S
Zr37       O2419   2.344   1_455  S
Zr37       O3641   2.339   1_445  S
Zr37       O1252   2.336   1_545  S
Zr38        O622   2.432   1_554  S
Zr38       O1228   2.433       .  S
Zr38        O617   2.344   1_564  S
Zr38       O1842   2.346   1_554  S
Zr38       O1252   2.347       .  S
Zr39        O623   2.437   1_554  S
Zr39       O1229   2.458   1_545  S
Zr39        O610   2.343   1_554  S
Zr39       O1241   2.334   1_545  S
Zr39       O1854   2.347   1_544  S
Zr40       O2427   2.448       .  S
Zr40        O634   2.422   1_554  S
Zr40         O52   2.345   1_655  S
Zr40       O2441   2.338       .  S
Zr40        O642   2.341   1_654  S
Zr40       O3054   2.337   1_554  S
O41       Zr3637   2.336       .  S
O41       Zr1239   2.335   1_554  S
O41       Zr2440   2.338       .  S
O42       Zr1236   2.336       .  S
O42       Zr1838   2.345       .  S
O42        Zr640   2.341   1_455  S
C43         C554   1.486       .  S
C44         C570   1.497       .  S
C45         C490   1.484       .  S
C46         C474   1.500       .  S
C47         C522   1.504       .  S
C48         C509   1.501       .  S
C49         C442   1.497       .  S
C50         C410   1.488       .  S
H51          O52   0.966       .  S
O52       Zr1237   2.336       .  S
O52       Zr1238   2.348       .  S
H53          O54   0.963       .  S
O54       Zr3636   2.346       .  S
O54       Zr1839   2.347       .  S
O54       Zr3040   2.339       .  S
O55         Zr91   2.412   1_455  S
O55          C66   1.285       .  A
O56         Zr90   2.454       .  S
O56          C67   1.296       .  A
O57         Zr63   2.448       .  S
O57          C68   1.295       .  A
O58       Zr2463   2.445       .  S
O58          C69   1.292       .  A
O59         Zr93   2.444       .  S
O59          C69   1.295       .  A
O60         Zr92   2.427       .  S
O60          C68   1.287       .  A
O61         Zr63   2.410   1_655  S
O61          C67   1.285       .  A
O62         Zr63   2.453       .  S
O62          C66   1.294       .  A
Zr63       O2458   2.450   1_455  S
Zr63         O65   2.329       .  S
Zr63         O71   2.350       .  S
Zr63       O2464   2.352   1_455  S
Zr63       O2473   2.330   1_455  S
O64         Zr93   2.339       .  S
O64       Zr2463   2.352       .  S
O64       Zr2490   2.335       .  S
O65         Zr91   2.329   1_455  S
O65         Zr92   2.338       .  S
C66         C586   1.476       .  S
C67         C538   1.482       .  S
C68         C317   1.492       .  S
C69         C282   1.493       .  S
H70          O71   0.968       .  S
O71         Zr90   2.344   1_455  S
O71         Zr92   2.343       .  S
H72          O73   0.963       .  S
O73         Zr93   2.351       .  S
O73       Zr2463   2.330       .  S
O73       Zr2491   2.331       .  S
O74         Zr90   2.441       .  S
O74          C97   1.294   1_655  A
O75         Zr91   2.408       .  S
O75          C98   1.284       .  A
O76         Zr92   2.453       .  S
O76          C99   1.296       .  A
O77         Zr93   2.441       .  S
O77         C100   1.292       .  A
O78         Zr93   2.420       .  S
O78         C101   1.287       .  A
O79         Zr92   2.445       .  S
O79         C102   1.294       .  A
O80         Zr94   2.479   1_455  S
O80         C103   1.301       .  A
O81       Zr2494   2.455       .  S
O81         C104   1.296       .  A
O82         Zr92   2.424       .  S
O82         C103   1.286       .  A
O83         Zr93   2.465       .  S
O83         C104   1.296       .  A
O84         Zr90   2.436   1_455  S
O84          C99   1.288       .  A
O85         Zr91   2.446   1_455  S
O85         C102   1.292       .  A
O86       Zr2491   2.442       .  S
O86         C101   1.294       .  A
O87       Zr2490   2.441       .  S
O87         C100   1.292       .  A
O88         Zr94   2.438   1_455  S
O88          C97   1.292       .  A
O89         Zr94   2.449       .  S
O89          C98   1.296       .  A
Zr90       O2487   2.443       .  S
Zr90         O96   2.345   1_655  S
Zr90       O2464   2.334       .  S
Zr90       O2508   2.346       .  S
Zr91       O2486   2.444       .  S
Zr91        O106   2.342   1_655  S
Zr91       O2473   2.331       .  S
Zr91       O2495   2.336       .  S
Zr92         O96   2.332       .  S
Zr92        O106   2.348       .  S
Zr93         O95   2.337       .  S
Zr93        O108   2.337       .  S
Zr94       O2481   2.455       .  S
Zr94         O96   2.342   1_655  S
Zr94        O106   2.341   1_655  S
Zr94       O2495   2.336       .  S
Zr94       O2508   2.357       .  S
O95       Zr2491   2.336       .  S
O95       Zr2494   2.336       .  S
C97         C557   1.481       .  S
C98         C573   1.493       .  S
C99         C378   1.508       .  S
C100        C394   1.475       .  S
C101        C346   1.490       .  S
C102        C362   1.501       .  S
C103        C330   1.508       .  S
C104        C301   1.498       .  S
H105        O106   0.962       .  S
H107        O108   0.965       .  S
O108      Zr2490   2.348       .  S
O108      Zr2494   2.355       .  S
O109       Zr145   2.454       .  S
O109        C120   1.296       .  A
O110       Zr144   2.429       .  S
O110        C121   1.292       .  A
O111       Zr117   2.461       .  S
O111        C122   1.296       .  A
O112      Zr1317   2.450       .  S
O112        C123   1.294       .  A
O113       Zr147   2.437       .  S
O113        C123   1.291       .  A
O114       Zr146   2.432       .  S
O114        C122   1.291       .  A
O115       Zr117   2.428       .  S
O115        C121   1.287       .  A
O116       Zr117   2.435       .  S
O116        C120   1.288       .  A
Zr117      O1312   2.452       .  S
Zr117       O119   2.336       .  S
Zr117       O125   2.337       .  S
Zr117      O1318   2.342       .  S
Zr117      O1327   2.339       .  S
O118       Zr147   2.341       .  S
O118      Zr1317   2.344       .  S
O118      Zr1344   2.334       .  S
O119       Zr145   2.344       .  S
O119       Zr146   2.354       .  S
C120       C1725   1.504       .  S
C121       C1706   1.496       .  S
C122        C237   1.483       .  S
C123        C218   1.477       .  S
H124        O125   0.965       .  S
O125       Zr144   2.343       .  S
O125       Zr146   2.340       .  S
H126        O127   0.965       .  S
O127       Zr147   2.340       .  S
O127      Zr1317   2.340       .  S
O127      Zr1345   2.330       .  S
O128       Zr144   2.440       .  S
O128        C151   1.291       .  A
O129       Zr145   2.430       .  S
O129        C152   1.292       .  A
O130       Zr146   2.477       .  S
O130        C153   1.300       .  A
O131       Zr147   2.445       .  S
O131        C154   1.294       .  A
O132       Zr147   2.445       .  S
O132        C155   1.292       .  A
O133       Zr146   2.459       .  S
O133        C156   1.297       .  A
O134       Zr148   2.447       .  S
O134        C157   1.293       .  A
O135      Zr1348   2.436       .  S
O135        C158   1.291       .  A
O136       Zr146   2.442       .  S
O136        C157   1.292       .  A
O137       Zr147   2.444       .  S
O137        C158   1.293       .  A
O138       Zr144   2.428       .  S
O138        C153   1.287       .  A
O139       Zr145   2.448       .  S
O139        C156   1.294       .  A
O140      Zr1345   2.455       .  S
O140        C155   1.296       .  A
O141      Zr1344   2.444       .  S
O141        C154   1.291       .  A
O142       Zr148   2.445       .  S
O142        C151   1.293       .  A
O143       Zr148   2.435       .  S
O143        C152   1.288       .  A
Zr144      O1341   2.446       .  S
Zr144       O150   2.342       .  S
Zr144      O1318   2.332       .  S
Zr144      O1362   2.337       .  S
Zr145      O1340   2.459       .  S
Zr145       O160   2.358       .  S
Zr145      O1327   2.329       .  S
Zr145      O1349   2.344       .  S
Zr146       O150   2.344       .  S
Zr146       O160   2.350       .  S
Zr147       O149   2.341       .  S
Zr147       O162   2.342       .  S
Zr148      O1335   2.437       .  S
Zr148       O150   2.338       .  S
Zr148       O160   2.347       .  S
Zr148      O1349   2.347       .  S
Zr148      O1362   2.348       .  S
O149      Zr1345   2.342       .  S
O149      Zr1348   2.346       .  S
C151       C1693   1.486       .  S
C152       C1677   1.498       .  S
C153        C333   1.509       .  S
C154        C314   1.497       .  S
C155        C285   1.495       .  S
C156        C298   1.493       .  S
C157        C250   1.475       .  S
C158        C266   1.470       .  S
H159        O160   0.965       .  S
H161        O162   0.966       .  S
O162      Zr1344   2.336       .  S
O162      Zr1348   2.347       .  S
O163       Zr199   2.457       .  S
O163        C174   1.296       .  A
O164       Zr198   2.460       .  S
O164        C175   1.295       .  A
O165       Zr771   2.448       .  S
O165        C176   1.296       .  A
O166       Zr171   2.456       .  S
O166        C177   1.297       .  A
O167       Zr201   2.430       .  S
O167        C177   1.287       .  A
O168       Zr200   2.445       .  S
O168        C176   1.292       .  A
O169       Zr171   2.449       .  S
O169        C175   1.295       .  A
O170       Zr171   2.449       .  S
O170        C174   1.293       .  A
Zr171       O765   2.448       .  S
Zr171       O172   2.339       .  S
Zr171       O181   2.343       .  S
Zr171       O773   2.343       .  S
Zr171       O779   2.347       .  S
O172       Zr198   2.343       .  S
O172       Zr201   2.344       .  S
O173       Zr200   2.342       .  S
O173       Zr771   2.343       .  S
O173       Zr799   2.339   1_554  S
C174       C1061   1.502       .  S
C175       C1045   1.503       .  S
C176        C365   1.498       .  S
C177        C381   1.506       .  S
H178        O179   0.963       .  S
O179       Zr200   2.348       .  S
O179       Zr771   2.347       .  S
O179       Zr798   2.343       .  S
H180        O181   0.966       .  S
O181       Zr199   2.343       .  S
O181       Zr201   2.347       .  S
O182       Zr198   2.452       .  S
O182        C205   1.295       .  A
O183       Zr199   2.458       .  S
O183        C206   1.295       .  A
O184       Zr200   2.443       .  S
O184        C207   1.292       .  A
O185       Zr201   2.441       .  S
O185        C208   1.292       .  A
O186       Zr201   2.448       .  S
O186        C209   1.293       .  A
O187       Zr200   2.445       .  S
O187        C210   1.293       .  A
O188       Zr802   2.412   1_554  S
O188        C211   1.283       .  A
O189       Zr202   2.439       .  S
O189        C212   1.291       .  A
O190       Zr200   2.452       .  S
O190        C211   1.296       .  A
O191       Zr201   2.450       .  S
O191        C212   1.293       .  A
O192       Zr798   2.447       .  S
O192        C207   1.294       .  A
O193       Zr799   2.436   1_554  S
O193        C210   1.290       .  A
O194       Zr199   2.423       .  S
O194        C209   1.289       .  A
O195       Zr198   2.443       .  S
O195        C208   1.292       .  A
O196       Zr202   2.467       .  S
O196        C205   1.297       .  A
O197       Zr202   2.449       .  S
O197        C206   1.294       .  A
Zr198       O792   2.447       .  S
Zr198       O216   2.353       .  S
Zr198       O779   2.343       .  S
Zr198       O804   2.345       .  S
Zr199       O793   2.436       .  S
Zr199       O203   2.347       .  S
Zr199       O773   2.338       .  S
Zr199       O814   2.338       .  S
Zr200       O204   2.346       .  S
Zr200       O214   2.339       .  S
Zr201       O203   2.335       .  S
Zr201       O216   2.346       .  S
Zr202       O788   2.412       .  S
Zr202       O203   2.339       .  S
Zr202       O216   2.340       .  S
Zr202       O804   2.346       .  S
Zr202       O814   2.351       .  S
O204       Zr798   2.346       .  S
O204       Zr802   2.346   1_554  S
C205       C1013   1.493       .  S
C206       C1026   1.497       .  S
C207        C234   1.480       .  S
C208        C253   1.472       .  S
C209        C269   1.466       .  S
C210        C221   1.477       .  S
C211        C349   1.494       .  S
C212        C397   1.479       .  S
H213        O214   0.963       .  S
O214       Zr799   2.338   1_554  S
O214       Zr802   2.351   1_554  S
H215        O216   0.970       .  S
C217        C218   1.402       .  A
C217        C222   1.407       .  A
C217        H224   1.081       .  S
C218        C219   1.417       .  A
C219        C220   1.407       .  A
C219        C226   1.520       .  S
C220        C221   1.403       .  A
C220        H225   1.084       .  S
C221        C222   1.418       .  A
C222        C223   1.521       .  S
C223        F227   1.385       .  S
C223        F228   1.382       .  S
C223        F229   1.380       .  S
C226        F230   1.384       .  S
C226        F231   1.382       .  S
C226        F232   1.385       .  S
C233        C234   1.402       .  A
C233        C238   1.407       .  A
C233        H240   1.084       .  S
C234        C235   1.418       .  A
C235        C236   1.410       .  A
C235        C242   1.520       .  S
C236        C237   1.406       .  A
C236        H241   1.084       .  S
C237        C238   1.417       .  A
C238        C239   1.516       .  S
C239        F243   1.385       .  S
C239        F244   1.383       .  S
C239        F245   1.376       .  S
C242        F246   1.382       .  S
C242        F247   1.382       .  S
C242        F248   1.384       .  S
C249        C250   1.403       .  A
C249        C254   1.410       .  A
C249        H256   1.083       .  S
C250        C251   1.414       .  A
C251        C252   1.406       .  A
C251        C258   1.515       .  S
C252        C253   1.400       .  A
C252        H257   1.083       .  S
C253        C254   1.415       .  A
C254        C255   1.518       .  S
C255        F259   1.385       .  S
C255        F260   1.383       .  S
C255        F261   1.383       .  S
C258        F262   1.382       .  S
C258        F263   1.383       .  S
C258        F264   1.383       .  S
C265        C266   1.400       .  A
C265        C270   1.404       .  A
C265        H272   1.082       .  S
C266        C267   1.414       .  A
C267        C268   1.406       .  A
C267        C274   1.515       .  S
C268        C269   1.400       .  A
C268        H273   1.084       .  S
C269        C270   1.413       .  A
C270        C271   1.517       .  S
C271        F275   1.385       .  S
C271        F276   1.382       .  S
C271        F277   1.383       .  S
C274        F278   1.383       .  S
C274        F279   1.381       .  S
C274        F280   1.385       .  S
C281        C282   1.405       .  A
C281        C286   1.407       .  A
C281        H288   1.083       .  S
C282        C283   1.422       .  A
C283        C284   1.410       .  A
C283        C290   1.519       .  S
C284        C285   1.406       .  A
C284        H289   1.083       .  S
C285        C286   1.422       .  A
C286        C287   1.517       .  S
C287        F291   1.386       .  S
C287        F292   1.379       .  S
C287        F293   1.382       .  S
C290        F294   1.382       .  S
C290        F295   1.381       .  S
C290        F296   1.383       .  S
C297        C298   1.405       .  A
C297        C302   1.413       .  A
C297        H304   1.083       .  S
C298        C299   1.420       .  A
C299        C300   1.412       .  A
C299        C306   1.519       .  S
C300        C301   1.406       .  A
C300        H305   1.083       .  S
C301        C302   1.422       .  A
C302        C303   1.517       .  S
C303        F307   1.386       .  S
C303        F308   1.378       .  S
C303        F309   1.384       .  S
C306        F310   1.382       .  S
C306        F311   1.382       .  S
C306        F312   1.384       .  S
C313        C314   1.406       .  A
C313        C318   1.407       .  A
C313        H320   1.081       .  S
C314        C315   1.424       .  A
C315        C316   1.409       .  A
C315        C322   1.521       .  S
C316        C317   1.405       .  A
C316        H321   1.083       .  S
C317        C318   1.423       .  A
C318        C319   1.523       .  S
C319        F323   1.384       .  S
C319        F324   1.383       .  S
C319        F325   1.383       .  S
C322        F326   1.381       .  S
C322        F327   1.383       .  S
C322        F328   1.385       .  S
C329        C330   1.403       .  A
C329        C334   1.410       .  A
C329        H336   1.079       .  S
C330        C331   1.431       .  A
C331        C332   1.415       .  A
C331        C338   1.525       .  S
C332        C333   1.407       .  A
C332        H337   1.082       .  S
C333        C334   1.431       .  A
C334        C335   1.524       .  S
C335        F339   1.384       .  S
C335        F340   1.384       .  S
C335        F341   1.383       .  S
C338        F342   1.384       .  S
C338        F343   1.384       .  S
C338        F344   1.384       .  S
C345        C346   1.404       .  A
C345        C350   1.402       .  A
C345        H352   1.079       .  S
C346        C347   1.422       .  A
C347        C348   1.404       .  A
C347        C354   1.522       .  S
C348        C349   1.407       .  A
C348        H353   1.082       .  S
C349        C350   1.429       .  A
C350        C351   1.527       .  S
C351        F355   1.386       .  S
C351        F356   1.380       .  S
C351        F357   1.383       .  S
C354        F358   1.380       .  S
C354        F359   1.383       .  S
C354        F360   1.385       .  S
C361        C362   1.408       .  A
C361        C366   1.411       .  A
C361        H368   1.083       .  S
C362        C363   1.423       .  A
C363        C364   1.407       .  A
C363        C370   1.518       .  S
C364        C365   1.405       .  A
C364        H369   1.082       .  S
C365        C366   1.424       .  A
C366        C367   1.521       .  S
C367        F371   1.385       .  S
C367        F372   1.382       .  S
C367        F373   1.380       .  S
C370        F374   1.384       .  S
C370        F375   1.383       .  S
C370        F376   1.385       .  S
C377        C378   1.408       .  A
C377        C382   1.409       .  A
C377        H384   1.081       .  S
C378        C379   1.429       .  A
C379        C380   1.411       .  A
C379        C386   1.524       .  S
C380        C381   1.407       .  A
C380        H385   1.081       .  S
C381        C382   1.429       .  A
C382        C383   1.525       .  S
C383        F387   1.384       .  S
C383        F388   1.384       .  S
C383        F389   1.383       .  S
C386        F390   1.383       .  S
C386        F391   1.383       .  S
C386        F392   1.384       .  S
C393        C394   1.400       .  A
C393        C398   1.407       .  A
C393        H400   1.084       .  S
C394        C395   1.415       .  A
C395        C396   1.410       .  A
C395        C402   1.517       .  S
C396        C397   1.405       .  A
C396        H401   1.083       .  S
C397        C398   1.416       .  A
C398        C399   1.515       .  S
C399        F403   1.384       .  S
C399        F404   1.384       .  S
C399        F405   1.382       .  S
C402        F406   1.383       .  S
C402        F407   1.383       .  S
C402        F408   1.384       .  S
C409        C410   1.403       .  A
C409        C414   1.410       .  A
C409        H416   1.085       .  S
C410       C1011   1.417   1_554  A
C411        C412   1.413       .  A
C411       C1010   1.417       .  A
C411        C418   1.520       .  S
C412       C1013   1.408       .  A
C412        H417   1.083       .  S
C413        C805   1.493       .  S
C413        C414   1.424       .  A
C413       C1012   1.408   1_554  A
C414        C415   1.518       .  S
C415        F421   1.380       .  S
C415       F1019   1.384       .  S
C415       F1020   1.381       .  S
C418        F422   1.382       .  S
C418       F1023   1.382       .  S
C418       F1024   1.384       .  S
F419       C1015   1.384       .  S
F420       C1015   1.381       .  S
F423       C1018   1.382       .  S
F424       C1018   1.384       .  S
C425        C426   1.408       .  A
C425        C430   1.415       .  A
C425        H432   1.083       .  S
C426        C806   1.497       .  S
C426       C1027   1.421   1_556  A
C427        C428   1.411       .  A
C427       C1026   1.421       .  A
C427        C434   1.521       .  S
C428       C1029   1.408       .  A
C428        H433   1.083       .  S
C429        C430   1.423       .  A
C429       C1028   1.408   1_556  A
C430        C431   1.520       .  S
C431        F437   1.382       .  S
C431       F1035   1.384       .  S
C431       F1036   1.383       .  S
C434        F438   1.383       .  S
C434       F1039   1.384       .  S
C434       F1040   1.384       .  S
F435       C1031   1.384       .  S
F436       C1031   1.383       .  S
F439       C1034   1.384       .  S
F440       C1034   1.384       .  S
C441        C442   1.406       .  A
C441        C446   1.409       .  A
C441        H448   1.083       .  S
C442       C1043   1.421   1_554  A
C443        C444   1.413       .  A
C443       C1042   1.421       .  A
C443        C450   1.521       .  S
C444       C1045   1.411       .  A
C444        H449   1.083       .  S
C445        C775   1.503       .  S
C445        C446   1.424       .  A
C445       C1044   1.411   1_554  A
C446        C447   1.520       .  S
C447        F453   1.381       .  S
C447       F1051   1.386       .  S
C447       F1052   1.382       .  S
C450        F454   1.383       .  S
C450       F1055   1.383       .  S
C450       F1056   1.383       .  S
F451       C1047   1.386       .  S
F452       C1047   1.382       .  S
F455       C1050   1.383       .  S
F456       C1050   1.383       .  S
C457        C458   1.407       .  A
C457        C462   1.412       .  A
C457        H464   1.083       .  S
C458       C1059   1.424   1_554  A
C459        C460   1.414       .  A
C459       C1058   1.424       .  A
C459        C466   1.521       .  S
C460       C1061   1.408       .  A
C460        H465   1.083       .  S
C461        C774   1.502   1_554  S
C461        C462   1.424       .  A
C461       C1060   1.408   1_554  A
C462        C463   1.522       .  S
C463        F467   1.385       .  S
C463        F469   1.382       .  S
C463       F1068   1.383       .  S
C466        F470   1.383       .  S
C466        F472   1.385       .  S
C466       F1071   1.383       .  S
F468       C1063   1.383       .  S
F471       C1066   1.383       .  S
C473        C474   1.409       .  A
C473        C478   1.407       .  A
C473        H480   1.081       .  S
C474       C1675   1.426   1_545  A
C475        C476   1.405       .  A
C475       C1674   1.426       .  A
C475        C482   1.525       .  S
C476       C1677   1.408       .  A
C476        H481   1.080       .  S
C477       C1352   1.499       .  S
C477        C478   1.425       .  A
C477       C1676   1.407   1_545  A
C478        C479   1.524       .  S
C479        F483   1.385       .  S
C479        F485   1.383       .  S
C479       F1684   1.384   1_545  S
C482        F486   1.384       .  S
C482        F488   1.385       .  S
C482       F1687   1.383       .  S
F484       C1679   1.384       .  S
F487       C1682   1.383   1_545  S
C489        C490   1.403   1_545  A
C489        C494   1.407       .  A
C489        H496   1.083       .  S
C490       C1691   1.420       .  A
C491        C492   1.410       .  A
C491       C1690   1.421       .  A
C491        C498   1.521       .  S
C492       C1693   1.406       .  A
C492        H497   1.083       .  S
C493       C1351   1.486       .  S
C493        C494   1.421       .  A
C493       C1692   1.406   1_545  A
C494        C495   1.521       .  S
C495        F499   1.385       .  S
C495        F501   1.382       .  S
C495       F1700   1.382       .  S
C498        F502   1.384       .  S
C498        F504   1.385       .  S
C498       F1703   1.382       .  S
F500       C1695   1.382       .  S
F503       C1698   1.382       .  S
C505        C506   1.407       .  A
C505        C510   1.406       .  A
C505        H512   1.082       .  S
C506       C1321   1.496       .  S
C506       C1707   1.425   1_565  A
C507        C508   1.406       .  A
C507       C1706   1.425       .  A
C507        C514   1.525       .  S
C508       C1709   1.409       .  A
C508        H513   1.081       .  S
C509        C510   1.426       .  A
C509       C1708   1.408   1_565  A
C510        C511   1.521       .  S
C511        F517   1.381       .  S
C511       F1715   1.386       .  S
C511       F1716   1.383       .  S
C514        F518   1.384       .  S
C514       F1719   1.380       .  S
C514       F1720   1.384       .  S
F515       C1711   1.385       .  S
F516       C1711   1.383       .  S
F519       C1714   1.380       .  S
F520       C1714   1.384       .  S
C521        C526   1.407       .  A
C521       C1722   1.407       .  A
C521        H528   1.082       .  S
C522        C523   1.429       .  A
C522       C1721   1.407       .  A
C523        C524   1.411       .  A
C523        C530   1.528       .  S
C524        C525   1.409       .  A
C524        H529   1.082       .  S
C525       C1320   1.505       .  S
C525       C1726   1.427       .  A
C526       C1725   1.427       .  A
C526        C527   1.524       .  S
C527        F533   1.379       .  S
C527       F1731   1.384       .  S
C527       F1732   1.383       .  S
C530        F534   1.383       .  S
C530       F1735   1.373       .  S
C530       F1736   1.383       .  S
F531       C1727   1.385       .  S
F532       C1727   1.383       .  S
F535       C1730   1.374       .  S
F536       C1730   1.384       .  S
C537        C538   1.400   1_455  A
C537        C542   1.403       .  A
C537        H544   1.083       .  S
C538       C2939   1.424       .  A
C539        C540   1.411       .  A
C539       C2938   1.423       .  A
C539        C546   1.523       .  S
C540       C2941   1.406       .  A
C540        H545   1.083       .  S
C541        C542   1.422       .  A
C541       C2940   1.407   1_455  A
C542        C543   1.521       .  S
C543        F547   1.385       .  S
C543        F548   1.384       .  S
C543        F549   1.382       .  S
C546        F550   1.383       .  S
C546        F551   1.382       .  S
C546        F552   1.384       .  S
C553        C554   1.404   1_455  A
C553        C558   1.404       .  A
C553        H560   1.083       .  S
C554       C2955   1.425       .  A
C555        C556   1.406       .  A
C555       C2954   1.426       .  A
C555        C562   1.521       .  S
C556       C2957   1.402       .  A
C556        H561   1.083       .  S
C557        C558   1.417       .  A
C557       C2956   1.402   1_455  A
C558        C559   1.517       .  S
C559        F563   1.385       .  S
C559        F564   1.381       .  S
C559        F565   1.384       .  S
C562        F566   1.379       .  S
C562        F567   1.382       .  S
C562        F568   1.386       .  S
C569        C570   1.408       .  A
C569        C574   1.404       .  A
C569        H576   1.082       .  S
C570       C2971   1.418       .  A
C571        C572   1.401       .  A
C571       C2970   1.419       .  A
C571        C578   1.510       .  S
C572       C2973   1.405       .  A
C572        H577   1.082       .  S
C573        C574   1.427       .  A
C573       C2972   1.404       .  A
C574        C575   1.521       .  S
C575        F581   1.386       .  S
C575       F2979   1.377   1_655  S
C575       F2980   1.381       .  S
C578        F582   1.384       .  S
C578       F2983   1.379       .  S
C578       F2984   1.385       .  S
F579       C2975   1.377       .  S
F580       C2975   1.382       .  S
F583       C2978   1.379       .  S
F584       C2978   1.385       .  S
C585        C586   1.405       .  A
C585        C590   1.407       .  A
C585        H592   1.084       .  S
C586       C2987   1.420   1_455  A
C587        C588   1.404       .  A
C587       C2986   1.421       .  A
C587        C594   1.520       .  S
C588       C2989   1.400       .  A
C588        H593   1.084       .  S
C589        C590   1.414       .  A
C589       C2988   1.399   1_455  A
C590        C591   1.517       .  S
C591        F595   1.384       .  S
C591        F596   1.384       .  S
C591        F597   1.378       .  S
C594        F598   1.382       .  S
C594        F599   1.381       .  S
C594        F600   1.385       .  S
O601       Zr637   2.439       .  S
O601        C612   1.292       .  A
O602       Zr636   2.453   1_545  S
O602        C613   1.295       .  A
O603       Zr609   2.454       .  S
O603        C614   1.296       .  A
O604      Zr3009   2.464       .  S
O604        C615   1.296       .  A
O605       Zr639   2.448       .  S
O605        C615   1.295       .  A
O606       Zr638   2.457   1_545  S
O606        C614   1.294       .  A
O607        C613   1.289       .  A
O608       Zr609   2.430       .  S
O608        C612   1.291       .  A
Zr609      O3004   2.462   1_455  S
Zr609      O2410   2.337   1_455  S
Zr609       O611   2.343       .  S
Zr609      O3019   2.338   1_455  S
O610      Zr2409   2.336       .  S
O610      Zr3036   2.342   1_545  S
O611       Zr637   2.338       .  S
O611       Zr638   2.333   1_545  S
C612       C1189   1.471       .  S
C613       C1141   1.488       .  S
C614       C1058   1.502       .  S
C615       C1029   1.500       .  S
H616        O617   0.965       .  S
O617       Zr636   2.345   1_545  S
H618        O619   0.965       .  S
O619      Zr3009   2.342       .  S
O619      Zr3037   2.343       .  S
O619       Zr639   2.341       .  S
O620      Zr1836   2.458   1_655  S
O620        C643   1.297       .  A
O621      Zr1837   2.452   1_655  S
O621        C644   1.293       .  A
O622        C645   1.290       .  A
O623        C646   1.294       .  A
O624       Zr639   2.455       .  S
O624        C647   1.297       .  A
O625       Zr638   2.444       .  S
O625        C648   1.295       .  A
O626       Zr640   2.453   1_455  S
O626        C649   1.294       .  A
O627      Zr3040   2.446       .  S
O627        C650   1.293       .  A
O628      Zr1838   2.439       .  S
O628        C649   1.293       .  A
O629      Zr1839   2.456       .  S
O629        C650   1.295       .  A
O630       Zr636   2.449       .  S
O630        C645   1.295       .  A
O631       Zr637   2.438   1_565  S
O631        C648   1.289       .  A
O632      Zr3037   2.428       .  S
O632        C647   1.286       .  A
O633      Zr3036   2.433   1_545  S
O633        C646   1.288       .  A
O634        C643   1.287       .  A
O635       Zr640   2.412       .  S
O635        C644   1.288       .  A
Zr636      O1820   2.463   1_455  S
Zr636      O3033   2.428   1_465  S
Zr636      O3010   2.346   1_465  S
Zr636      O1842   2.337       .  S
Zr636      O4254   2.345   1_455  S
Zr637      O1821   2.448   1_445  S
Zr637      O3032   2.429   1_455  S
Zr637      O3019   2.344   1_455  S
Zr637      O4241   2.339   1_445  S
Zr637      O1852   2.336   1_545  S
Zr638      O1828   2.433       .  S
Zr638      O1242   2.346       .  S
Zr638      O1852   2.347       .  S
Zr639      O1829   2.458   1_545  S
Zr639      O1841   2.334   1_545  S
Zr639      O1254   2.347   1_545  S
Zr640      O3027   2.448       .  S
Zr640      O3041   2.338       .  S
Zr640      O2454   2.337       .  S
Zr640       O652   2.345   1_655  S
O641      Zr4237   2.336       .  S
O641      Zr1839   2.335       .  S
O641      Zr3040   2.338       .  S
O642      Zr1836   2.336       .  S
O642      Zr1238   2.345   1_556  S
C643       C1154   1.486       .  S
C644       C1170   1.497       .  S
C645       C1090   1.484       .  S
C646       C1074   1.500       .  S
C647       C1122   1.504       .  S
C648       C1109   1.501       .  S
C649       C1042   1.497       .  S
C650       C1010   1.488       .  S
H651        O652   0.966       .  S
O652      Zr1837   2.337       .  S
O652      Zr1838   2.348       .  S
H653        O654   0.963       .  S
O654      Zr4236   2.346       .  S
O654      Zr1239   2.347       .  S
O654      Zr2440   2.339   1_556  S
O655       Zr691   2.412   1_455  S
O655        C666   1.285       .  A
O656       Zr690   2.455       .  S
O656        C667   1.296       .  A
O657       Zr663   2.448       .  S
O657        C668   1.295       .  A
O658      Zr3063   2.445       .  S
O658        C669   1.293       .  A
O659       Zr693   2.444       .  S
O659        C669   1.295       .  A
O660       Zr692   2.426       .  S
O660        C668   1.287       .  A
O661       Zr663   2.410   1_655  S
O661        C667   1.285       .  A
O662       Zr663   2.453       .  S
O662        C666   1.294       .  A
Zr663      O3058   2.450   1_455  S
Zr663      O3064   2.352   1_455  S
Zr663       O665   2.329       .  S
Zr663      O3073   2.330   1_455  S
Zr663       O671   2.350       .  S
O664      Zr3063   2.352       .  S
O664      Zr3090   2.335       .  S
O664       Zr693   2.339       .  S
O665       Zr691   2.329   1_455  S
O665       Zr692   2.338       .  S
C666       C1186   1.476       .  S
C667       C1138   1.482       .  S
C668        C917   1.492       .  S
C669        C882   1.493       .  S
H670        O671   0.968       .  S
O671       Zr690   2.343   1_455  S
O671       Zr692   2.343       .  S
H672        O673   0.963       .  S
O673      Zr3063   2.330       .  S
O673      Zr3091   2.331       .  S
O673       Zr693   2.351       .  S
O674       Zr690   2.440       .  S
O674        C697   1.294   1_655  A
O675       Zr691   2.408       .  S
O675        C698   1.283       .  A
O676       Zr692   2.454       .  S
O676        C699   1.296       .  A
O677       Zr693   2.441       .  S
O677        C700   1.292       .  A
O678       Zr693   2.420       .  S
O678        C701   1.286       .  A
O679       Zr692   2.446       .  S
O679        C702   1.294       .  A
O680       Zr694   2.479   1_455  S
O680        C703   1.301       .  A
O681      Zr3094   2.455       .  S
O681        C704   1.296       .  A
O682       Zr692   2.424       .  S
O682        C703   1.286       .  A
O683       Zr693   2.465       .  S
O683        C704   1.296       .  A
O684       Zr690   2.436   1_455  S
O684        C699   1.288       .  A
O685       Zr691   2.446   1_455  S
O685        C702   1.292       .  A
O686      Zr3091   2.442       .  S
O686        C701   1.294       .  A
O687      Zr3090   2.441       .  S
O687        C700   1.292       .  A
O688       Zr694   2.439   1_455  S
O688        C697   1.292       .  A
O689       Zr694   2.450       .  S
O689        C698   1.296       .  A
Zr690      O3087   2.443       .  S
Zr690      O3064   2.334       .  S
Zr690       O696   2.345   1_655  S
Zr690      O3108   2.346       .  S
Zr691      O3086   2.444       .  S
Zr691      O3073   2.331       .  S
Zr691      O3095   2.336       .  S
Zr691       O706   2.342   1_655  S
Zr692       O696   2.332       .  S
Zr692       O706   2.348       .  S
Zr693       O695   2.337       .  S
Zr693       O708   2.337       .  S
Zr694      O3081   2.455       .  S
Zr694      O3095   2.336       .  S
Zr694       O696   2.342   1_655  S
Zr694      O3108   2.357       .  S
Zr694       O706   2.341   1_655  S
O695      Zr3091   2.336       .  S
O695      Zr3094   2.336       .  S
C697       C1157   1.481       .  S
C698       C1173   1.493       .  S
C699        C978   1.508       .  S
C700        C994   1.476       .  S
C701        C946   1.490       .  S
C702        C962   1.501       .  S
C703        C930   1.508       .  S
C704        C901   1.498       .  S
H705        O706   0.962       .  S
H707        O708   0.965       .  S
O708      Zr3090   2.348       .  S
O708      Zr3094   2.355       .  S
O709       Zr745   2.453       .  S
O709        C720   1.296       .  A
O710       Zr744   2.430       .  S
O710        C721   1.292       .  A
O711       Zr717   2.461       .  S
O711        C722   1.296       .  A
O712      Zr1917   2.450       .  S
O712        C723   1.294       .  A
O713       Zr747   2.436       .  S
O713        C723   1.291       .  A
O714       Zr746   2.433       .  S
O714        C722   1.291       .  A
O715       Zr717   2.428       .  S
O715        C721   1.287       .  A
O716       Zr717   2.435       .  S
O716        C720   1.288       .  A
Zr717      O1912   2.452       .  S
Zr717      O1918   2.342       .  S
Zr717       O719   2.335       .  S
Zr717      O1927   2.338       .  S
Zr717       O725   2.337       .  S
O718      Zr1917   2.344       .  S
O718      Zr1944   2.334       .  S
O718       Zr747   2.341       .  S
O719       Zr745   2.344       .  S
O719       Zr746   2.354       .  S
C720       C2325   1.504       .  S
C721       C2306   1.496       .  S
C722        C837   1.483       .  S
C723        C818   1.477       .  S
H724        O725   0.965       .  S
O725       Zr744   2.343       .  S
O725       Zr746   2.340       .  S
H726        O727   0.965       .  S
O727      Zr1917   2.339       .  S
O727      Zr1945   2.330       .  S
O727       Zr747   2.340       .  S
O728       Zr744   2.441       .  S
O728        C751   1.291       .  A
O729       Zr745   2.429       .  S
O729        C752   1.292       .  A
O730       Zr746   2.476       .  S
O730        C753   1.300       .  A
O731       Zr747   2.445       .  S
O731        C754   1.294       .  A
O732       Zr747   2.445       .  S
O732        C755   1.292       .  A
O733       Zr746   2.459       .  S
O733        C756   1.297       .  A
O734       Zr748   2.447       .  S
O734        C757   1.293       .  A
O735      Zr1948   2.436       .  S
O735        C758   1.291       .  A
O736       Zr746   2.442       .  S
O736        C757   1.292       .  A
O737       Zr747   2.444       .  S
O737        C758   1.293       .  A
O738       Zr744   2.427       .  S
O738        C753   1.287       .  A
O739       Zr745   2.449       .  S
O739        C756   1.294       .  A
O740      Zr1945   2.454       .  S
O740        C755   1.296       .  A
O741      Zr1944   2.443       .  S
O741        C754   1.291       .  A
O742       Zr748   2.445       .  S
O742        C751   1.294       .  A
O743       Zr748   2.435       .  S
O743        C752   1.288       .  A
Zr744      O1941   2.446       .  S
Zr744      O1918   2.332       .  S
Zr744       O750   2.342       .  S
Zr744      O1962   2.337       .  S
Zr745      O1940   2.459       .  S
Zr745      O1927   2.330       .  S
Zr745      O1949   2.344       .  S
Zr745       O760   2.358       .  S
Zr746       O750   2.344       .  S
Zr746       O760   2.350       .  S
Zr747       O749   2.341       .  S
Zr747       O762   2.341       .  S
Zr748      O1935   2.437       .  S
Zr748      O1949   2.347       .  S
Zr748       O750   2.338       .  S
Zr748      O1962   2.348       .  S
Zr748       O760   2.347       .  S
O749      Zr1945   2.341       .  S
O749      Zr1948   2.346       .  S
C751       C2293   1.486       .  S
C752       C2277   1.498       .  S
C753        C933   1.509       .  S
C754        C914   1.497       .  S
C755        C885   1.496       .  S
C756        C898   1.493       .  S
C757        C850   1.475       .  S
C758        C866   1.470       .  S
H759        O760   0.965       .  S
H761        O762   0.966       .  S
O762      Zr1944   2.336       .  S
O762      Zr1948   2.347       .  S
O763       Zr799   2.458       .  S
O763        C774   1.296       .  A
O764       Zr798   2.460       .  S
O764        C775   1.295       .  A
O765        C776   1.296       .  A
O766       Zr771   2.456   1_556  S
O766        C777   1.297       .  A
O767       Zr801   2.430       .  S
O767        C777   1.287       .  A
O768       Zr800   2.445       .  S
O768        C776   1.292       .  A
O769       Zr771   2.449       .  S
O769        C775   1.295       .  A
O770       Zr771   2.449   1_556  S
O770        C774   1.293       .  A
Zr771       O772   2.339   1_554  S
Zr771       O781   2.343   1_554  S
O772       Zr798   2.343   1_556  S
O772       Zr801   2.344       .  S
O773       Zr800   2.342       .  S
C776        C965   1.498       .  S
C777        C981   1.506       .  S
H778        O779   0.964       .  S
O779       Zr800   2.348       .  S
H780        O781   0.966       .  S
O781       Zr799   2.343       .  S
O781       Zr801   2.347       .  S
O782       Zr798   2.452       .  S
O782        C805   1.295       .  A
O783       Zr799   2.458       .  S
O783        C806   1.295       .  A
O784       Zr800   2.443       .  S
O784        C807   1.292       .  A
O785       Zr801   2.441       .  S
O785        C808   1.292       .  A
O786       Zr801   2.448       .  S
O786        C809   1.293       .  A
O787       Zr800   2.445       .  S
O787        C810   1.293       .  A
O788        C811   1.283       .  A
O789       Zr802   2.439       .  S
O789        C812   1.291       .  A
O790       Zr800   2.452       .  S
O790        C811   1.296       .  A
O791       Zr801   2.450       .  S
O791        C812   1.293       .  A
O792        C807   1.294       .  A
O793        C810   1.290       .  A
O794       Zr799   2.423       .  S
O794        C809   1.289       .  A
O795       Zr798   2.443   1_556  S
O795        C808   1.292       .  A
O796       Zr802   2.467   1_554  S
O796        C805   1.297       .  A
O797       Zr802   2.449       .  S
O797        C806   1.294       .  A
Zr798       O816   2.353   1_554  S
Zr799       O803   2.347       .  S
Zr800       O804   2.346       .  S
Zr800       O814   2.340       .  S
Zr801       O803   2.335       .  S
Zr801       O816   2.346       .  S
Zr802       O803   2.339       .  S
Zr802       O816   2.340       .  S
C807        C834   1.480       .  S
C808        C853   1.472       .  S
C809        C869   1.466       .  S
C810        C821   1.478       .  S
C811        C949   1.494       .  S
C812        C997   1.479       .  S
H813        O814   0.964       .  S
H815        O816   0.970       .  S
C817        C818   1.402       .  A
C817        C822   1.408       .  A
C817        H824   1.081       .  S
C818        C819   1.417       .  A
C819        C820   1.407       .  A
C819        C826   1.520       .  S
C820        C821   1.403       .  A
C820        H825   1.084       .  S
C821        C822   1.419       .  A
C822        C823   1.521       .  S
C823        F827   1.385       .  S
C823        F828   1.382       .  S
C823        F829   1.380       .  S
C826        F830   1.384       .  S
C826        F831   1.382       .  S
C826        F832   1.385       .  S
C833        C834   1.402       .  A
C833        C838   1.408       .  A
C833        H840   1.084       .  S
C834        C835   1.418       .  A
C835        C836   1.410       .  A
C835        C842   1.520       .  S
C836        C837   1.406       .  A
C836        H841   1.084       .  S
C837        C838   1.417       .  A
C838        C839   1.516       .  S
C839        F843   1.385       .  S
C839        F844   1.383       .  S
C839        F845   1.376       .  S
C842        F846   1.382       .  S
C842        F847   1.382       .  S
C842        F848   1.384       .  S
C849        C850   1.403       .  A
C849        C854   1.410       .  A
C849        H856   1.083       .  S
C850        C851   1.414       .  A
C851        C852   1.406       .  A
C851        C858   1.515       .  S
C852        C853   1.400       .  A
C852        H857   1.083       .  S
C853        C854   1.415       .  A
C854        C855   1.518       .  S
C855        F859   1.385       .  S
C855        F860   1.383       .  S
C855        F861   1.383       .  S
C858        F862   1.382       .  S
C858        F863   1.383       .  S
C858        F864   1.383       .  S
C865        C866   1.400       .  A
C865        C870   1.404       .  A
C865        H872   1.082       .  S
C866        C867   1.414       .  A
C867        C868   1.406       .  A
C867        C874   1.515       .  S
C868        C869   1.401       .  A
C868        H873   1.084       .  S
C869        C870   1.413       .  A
C870        C871   1.517       .  S
C871        F875   1.385       .  S
C871        F876   1.382       .  S
C871        F877   1.383       .  S
C874        F878   1.383       .  S
C874        F879   1.381       .  S
C874        F880   1.385       .  S
C881        C882   1.405       .  A
C881        C886   1.407       .  A
C881        H888   1.083       .  S
C882        C883   1.422       .  A
C883        C884   1.410       .  A
C883        C890   1.519       .  S
C884        C885   1.406       .  A
C884        H889   1.083       .  S
C885        C886   1.422       .  A
C886        C887   1.517       .  S
C887        F891   1.386       .  S
C887        F892   1.379       .  S
C887        F893   1.382       .  S
C890        F894   1.382       .  S
C890        F895   1.381       .  S
C890        F896   1.383       .  S
C897        C898   1.405       .  A
C897        C902   1.413       .  A
C897        H904   1.083       .  S
C898        C899   1.420       .  A
C899        C900   1.412       .  A
C899        C906   1.519       .  S
C900        C901   1.406       .  A
C900        H905   1.083       .  S
C901        C902   1.422       .  A
C902        C903   1.517       .  S
C903        F907   1.386       .  S
C903        F908   1.378       .  S
C903        F909   1.384       .  S
C906        F910   1.382       .  S
C906        F911   1.382       .  S
C906        F912   1.384       .  S
C913        C914   1.406       .  A
C913        C918   1.407       .  A
C913        H920   1.081       .  S
C914        C915   1.424       .  A
C915        C916   1.409       .  A
C915        C922   1.521       .  S
C916        C917   1.405       .  A
C916        H921   1.083       .  S
C917        C918   1.423       .  A
C918        C919   1.523       .  S
C919        F923   1.384       .  S
C919        F924   1.383       .  S
C919        F925   1.383       .  S
C922        F926   1.381       .  S
C922        F927   1.383       .  S
C922        F928   1.385       .  S
C929        C930   1.403       .  A
C929        C934   1.410       .  A
C929        H936   1.079       .  S
C930        C931   1.431       .  A
C931        C932   1.415       .  A
C931        C938   1.525       .  S
C932        C933   1.407       .  A
C932        H937   1.082       .  S
C933        C934   1.431       .  A
C934        C935   1.524       .  S
C935        F939   1.384       .  S
C935        F940   1.384       .  S
C935        F941   1.383       .  S
C938        F942   1.384       .  S
C938        F943   1.384       .  S
C938        F944   1.384       .  S
C945        C946   1.404       .  A
C945        C950   1.402       .  A
C945        H952   1.079       .  S
C946        C947   1.422       .  A
C947        C948   1.404       .  A
C947        C954   1.523       .  S
C948        C949   1.407       .  A
C948        H953   1.082       .  S
C949        C950   1.429       .  A
C950        C951   1.527       .  S
C951        F955   1.386       .  S
C951        F956   1.380       .  S
C951        F957   1.384       .  S
C954        F958   1.380       .  S
C954        F959   1.383       .  S
C954        F960   1.385       .  S
C961        C962   1.408       .  A
C961        C966   1.411       .  A
C961        H968   1.083       .  S
C962        C963   1.424       .  A
C963        C964   1.407       .  A
C963        C970   1.518       .  S
C964        C965   1.405       .  A
C964        H969   1.082       .  S
C965        C966   1.424       .  A
C966        C967   1.520       .  S
C967        F971   1.385       .  S
C967        F972   1.382       .  S
C967        F973   1.380       .  S
C970        F974   1.384       .  S
C970        F975   1.383       .  S
C970        F976   1.385       .  S
C977        C978   1.408       .  A
C977        C982   1.409       .  A
C977        H984   1.081       .  S
C978        C979   1.429       .  A
C979        C980   1.411       .  A
C979        C986   1.524       .  S
C980        C981   1.407       .  A
C980        H985   1.081       .  S
C981        C982   1.429       .  A
C982        C983   1.525       .  S
C983        F987   1.384       .  S
C983        F988   1.384       .  S
C983        F989   1.383       .  S
C986        F990   1.383       .  S
C986        F991   1.383       .  S
C986        F992   1.384       .  S
C993        C994   1.400       .  A
C993        C998   1.407       .  A
C993       H1000   1.084       .  S
C994        C995   1.415       .  A
C995        C996   1.410       .  A
C995       C1002   1.517       .  S
C996        C997   1.405       .  A
C996       H1001   1.083       .  S
C997        C998   1.415       .  A
C998        C999   1.515       .  S
C999       F1003   1.384       .  S
C999       F1004   1.384       .  S
C999       F1005   1.382       .  S
C1002      F1006   1.383       .  S
C1002      F1007   1.383       .  S
C1002      F1008   1.384       .  S
C1009      C1010   1.404       .  A
C1009      C1014   1.410       .  A
C1009      H1016   1.085       .  S
C1011      C1012   1.413       .  A
C1011      C1018   1.520       .  S
C1012      H1017   1.083       .  S
C1013      C1014   1.424       .  A
C1014      C1015   1.518       .  S
C1015      F1021   1.380       .  S
C1018      F1022   1.382       .  S
C1025      C1026   1.408       .  A
C1025      C1030   1.415       .  A
C1025      H1032   1.083       .  S
C1027      C1028   1.411       .  A
C1027      C1034   1.521       .  S
C1028      H1033   1.083       .  S
C1029      C1030   1.423       .  A
C1030      C1031   1.520       .  S
C1031      F1037   1.382       .  S
C1034      F1038   1.383       .  S
C1041      C1042   1.406       .  A
C1041      C1046   1.409       .  A
C1041      H1048   1.083       .  S
C1043      C1044   1.413       .  A
C1043      C1050   1.521       .  S
C1044      H1049   1.083       .  S
C1045      C1046   1.424       .  A
C1046      C1047   1.520       .  S
C1047      F1053   1.381       .  S
C1050      F1054   1.383       .  S
C1057      C1058   1.407       .  A
C1057      C1062   1.412       .  A
C1057      H1064   1.083       .  S
C1059      C1060   1.414       .  A
C1059      C1066   1.521       .  S
C1060      H1065   1.083       .  S
C1061      C1062   1.424       .  A
C1062      C1063   1.522       .  S
C1063      F1067   1.385       .  S
C1063      F1069   1.382       .  S
C1066      F1070   1.383       .  S
C1066      F1072   1.385       .  S
C1073      C1074   1.409       .  A
C1073      C1078   1.407       .  A
C1073      H1080   1.081       .  S
C1074      C2275   1.426   1_545  A
C1075      C2274   1.426       .  A
C1075      C1076   1.405       .  A
C1075      C1082   1.525       .  S
C1076      C2277   1.408       .  A
C1076      H1081   1.080       .  S
C1077      C1952   1.499       .  S
C1077      C2276   1.407   1_545  A
C1077      C1078   1.425       .  A
C1078      C1079   1.524       .  S
C1079      F1083   1.385       .  S
C1079      F2284   1.384   1_545  S
C1079      F1085   1.383       .  S
C1082      F1086   1.384       .  S
C1082      F2287   1.383       .  S
C1082      F1088   1.385       .  S
F1084      C2279   1.384       .  S
F1087      C2282   1.383   1_545  S
C1089      C1090   1.403   1_545  A
C1089      C1094   1.407       .  A
C1089      H1096   1.083       .  S
C1090      C2291   1.420       .  A
C1091      C2290   1.421       .  A
C1091      C1092   1.410       .  A
C1091      C1098   1.521       .  S
C1092      C2293   1.406       .  A
C1092      H1097   1.083       .  S
C1093      C1951   1.486       .  S
C1093      C2292   1.406   1_545  A
C1093      C1094   1.421       .  A
C1094      C1095   1.521       .  S
C1095      F1099   1.385       .  S
C1095      F2300   1.382       .  S
C1095      F1101   1.382       .  S
C1098      F1102   1.384       .  S
C1098      F2303   1.382       .  S
C1098      F1104   1.385       .  S
F1100      C2295   1.382       .  S
F1103      C2298   1.382       .  S
C1105      C1106   1.407       .  A
C1105      C1110   1.406       .  A
C1105      H1112   1.082       .  S
C1106      C1921   1.496       .  S
C1106      C2307   1.425   1_565  A
C1107      C2306   1.425       .  A
C1107      C1108   1.406       .  A
C1107      C1114   1.525       .  S
C1108      C2309   1.408       .  A
C1108      H1113   1.081       .  S
C1109      C2308   1.408   1_565  A
C1109      C1110   1.426       .  A
C1110      C1111   1.522       .  S
C1111      F2315   1.386       .  S
C1111      F2316   1.383       .  S
C1111      F1117   1.381       .  S
C1114      F1118   1.384       .  S
C1114      F2319   1.380       .  S
C1114      F2320   1.384       .  S
F1115      C2311   1.385       .  S
F1116      C2311   1.383       .  S
F1119      C2314   1.381       .  S
F1120      C2314   1.384       .  S
C1121      C2322   1.407       .  A
C1121      C1126   1.407       .  A
C1121      H1128   1.082       .  S
C1122      C2321   1.407       .  A
C1122      C1123   1.429       .  A
C1123      C1124   1.411       .  A
C1123      C1130   1.528       .  S
C1124      C1125   1.410       .  A
C1124      H1129   1.082       .  S
C1125      C1920   1.505       .  S
C1125      C2326   1.427       .  A
C1126      C2325   1.427       .  A
C1126      C1127   1.524       .  S
C1127      F2331   1.384       .  S
C1127      F2332   1.383       .  S
C1127      F1133   1.379       .  S
C1130      F1134   1.383       .  S
C1130      F2335   1.373       .  S
C1130      F2336   1.383       .  S
F1131      C2327   1.385       .  S
F1132      C2327   1.383       .  S
F1135      C2330   1.374       .  S
F1136      C2330   1.384       .  S
C1137      C1138   1.400   1_455  A
C1137      C1142   1.403       .  A
C1137      H1144   1.083       .  S
C1138      C3539   1.424       .  A
C1139      C3538   1.423       .  A
C1139      C1140   1.411       .  A
C1139      C1146   1.523       .  S
C1140      C3541   1.406       .  A
C1140      H1145   1.083       .  S
C1141      C3540   1.406   1_455  A
C1141      C1142   1.422       .  A
C1142      C1143   1.521       .  S
C1143      F1147   1.385       .  S
C1143      F1148   1.384       .  S
C1143      F1149   1.382       .  S
C1146      F1150   1.383       .  S
C1146      F1151   1.382       .  S
C1146      F1152   1.384       .  S
C1153      C1154   1.404   1_455  A
C1153      C1158   1.405       .  A
C1153      H1160   1.083       .  S
C1154      C3555   1.425       .  A
C1155      C3554   1.426       .  A
C1155      C1156   1.406       .  A
C1155      C1162   1.521       .  S
C1156      C3557   1.402       .  A
C1156      H1161   1.083       .  S
C1157      C3556   1.402   1_455  A
C1157      C1158   1.417       .  A
C1158      C1159   1.517       .  S
C1159      F1163   1.385       .  S
C1159      F1164   1.381       .  S
C1159      F1165   1.384       .  S
C1162      F1166   1.379       .  S
C1162      F1167   1.382       .  S
C1162      F1168   1.386       .  S
C1169      C1170   1.408       .  A
C1169      C1174   1.404       .  A
C1169      H1176   1.082       .  S
C1170      C3571   1.418       .  A
C1171      C3570   1.419       .  A
C1171      C1172   1.401       .  A
C1171      C1178   1.510       .  S
C1172      C3573   1.405       .  A
C1172      H1177   1.082       .  S
C1173      C3572   1.404       .  A
C1173      C1174   1.427       .  A
C1174      C1175   1.521       .  S
C1175      F3579   1.377   1_655  S
C1175      F3580   1.381       .  S
C1175      F1181   1.386       .  S
C1178      F1182   1.384       .  S
C1178      F3583   1.379       .  S
C1178      F3584   1.385       .  S
F1179      C3575   1.377       .  S
F1180      C3575   1.382       .  S
F1183      C3578   1.380       .  S
F1184      C3578   1.385       .  S
C1185      C1186   1.404       .  A
C1185      C1190   1.407       .  A
C1185      H1192   1.084       .  S
C1186      C3587   1.420   1_455  A
C1187      C3586   1.421       .  A
C1187      C1188   1.404       .  A
C1187      C1194   1.520       .  S
C1188      C3589   1.400       .  A
C1188      H1193   1.084       .  S
C1189      C3588   1.399   1_455  A
C1189      C1190   1.414       .  A
C1190      C1191   1.517       .  S
C1191      F1195   1.384       .  S
C1191      F1196   1.384       .  S
C1191      F1197   1.378       .  S
C1194      F1198   1.382       .  S
C1194      F1199   1.381       .  S
C1194      F1200   1.385       .  S
O1201     Zr1237   2.437       .  S
O1201      C1212   1.292       .  A
O1202     Zr1236   2.449       .  S
O1202      C1213   1.294       .  A
O1203     Zr1209   2.457       .  S
O1203      C1214   1.297       .  A
O1204     Zr3609   2.465       .  S
O1204      C1215   1.296       .  A
O1205     Zr1239   2.444       .  S
O1205      C1215   1.294       .  A
O1206     Zr1238   2.457       .  S
O1206      C1214   1.294   1_554  A
O1207     Zr1809   2.434       .  S
O1207      C1213   1.290       .  A
O1208     Zr1209   2.429   1_554  S
O1208      C1212   1.290       .  A
Zr1209     O3604   2.463   1_455  S
Zr1209     O1807   2.434       .  S
Zr1209     O4210   2.336   1_455  S
Zr1209     O1211   2.346   1_556  S
Zr1209     O3619   2.338   1_456  S
Zr1209     O1817   2.343       .  S
O1210     Zr4209   2.334       .  S
O1210     Zr3636   2.342       .  S
O1210     Zr1839   2.344       .  S
O1211     Zr1237   2.340       .  S
O1211     Zr1238   2.336       .  S
C1212      C1789   1.469       .  S
C1213      C1741   1.486       .  S
C1214      C1658   1.502       .  S
C1215      C1629   1.498       .  S
H1216      O1217   0.965       .  S
O1217     Zr1809   2.343       .  S
O1217     Zr1236   2.344       .  S
O1217     Zr1838   2.347       .  S
H1218      O1219   0.965       .  S
O1219     Zr3609   2.340   1_554  S
O1219     Zr3637   2.344       .  S
O1219     Zr1239   2.339   1_554  S
O1220      C1243   1.298       .  A
O1221      C1244   1.292       .  A
O1222     Zr1838   2.433       .  S
O1222      C1245   1.290       .  A
O1223     Zr1839   2.437       .  S
O1223      C1246   1.294       .  A
O1224     Zr1239   2.457   1_554  S
O1224      C1247   1.297       .  A
O1225     Zr1238   2.441       .  S
O1225      C1248   1.294       .  A
O1226     Zr1240   2.458   1_455  S
O1226      C1249   1.295       .  A
O1227     Zr3640   2.446       .  S
O1227      C1250   1.293       .  A
O1228      C1249   1.293       .  A
O1229      C1250   1.295       .  A
O1230     Zr1236   2.453       .  S
O1230      C1245   1.296       .  A
O1231     Zr1237   2.439       .  S
O1231      C1248   1.289       .  A
O1232     Zr3637   2.428       .  S
O1232      C1247   1.286       .  A
O1233     Zr3636   2.431       .  S
O1233      C1246   1.288       .  A
O1234     Zr1840   2.421       .  S
O1234      C1243   1.287       .  A
O1235     Zr1240   2.413       .  S
O1235      C1244   1.288       .  A
Zr1236     O3633   2.432   1_455  S
Zr1236     O3610   2.344   1_455  S
Zr1236     O2454   2.346   1_455  S
Zr1237     O3632   2.425   1_455  S
Zr1237     O3619   2.343   1_455  S
Zr1237     O2441   2.339   1_455  S
Zr1238     O1822   2.433   1_554  S
Zr1238     O1817   2.347   1_554  S
Zr1239     O1823   2.437       .  S
Zr1239     O1810   2.344       .  S
Zr1240     O3627   2.453       .  S
Zr1240     O1834   2.422   1_554  S
Zr1240     O3641   2.338       .  S
Zr1240     O1842   2.344   1_654  S
Zr1240     O4254   2.337   1_554  S
Zr1240     O1252   2.343   1_655  S
O1241     Zr2437   2.337   1_565  S
O1241     Zr3640   2.339       .  S
O1242     Zr1840   2.343   1_455  S
C1243      C1754   1.489       .  S
C1244      C1770   1.496       .  S
C1245      C1690   1.485       .  S
C1246      C1674   1.499       .  S
C1247      C1722   1.504       .  S
C1248      C1709   1.500       .  S
C1249      C1642   1.496       .  S
C1250      C1610   1.490       .  S
H1251      O1252   0.966       .  S
H1253      O1254   0.963       .  S
O1254     Zr2436   2.344       .  S
O1254     Zr4240   2.338       .  S
O1255     Zr1291   2.419   1_455  S
O1255      C1266   1.287       .  A
O1256     Zr1290   2.454       .  S
O1256      C1267   1.296       .  A
O1257     Zr1263   2.449       .  S
O1257      C1268   1.295       .  A
O1258     Zr3663   2.446       .  S
O1258      C1269   1.293       .  A
O1259     Zr1293   2.441       .  S
O1259      C1269   1.294       .  A
O1260     Zr1292   2.425       .  S
O1260      C1268   1.287       .  A
O1261     Zr1263   2.415   1_655  S
O1261      C1267   1.286       .  A
O1262     Zr1263   2.452       .  S
O1262      C1266   1.294       .  A
Zr1263     O3658   2.448   1_455  S
Zr1263     O3664   2.352   1_455  S
Zr1263     O1265   2.331       .  S
Zr1263     O3673   2.331   1_455  S
Zr1263     O1271   2.349       .  S
O1264     Zr3663   2.353       .  S
O1264     Zr3690   2.335       .  S
O1264     Zr1293   2.340       .  S
O1265     Zr1291   2.330   1_455  S
O1265     Zr1292   2.339       .  S
C1266      C1786   1.476       .  S
C1267      C1738   1.482       .  S
C1268      C1517   1.491       .  S
C1269      C1482   1.491       .  S
H1270      O1271   0.968       .  S
O1271     Zr1290   2.342   1_455  S
O1271     Zr1292   2.343       .  S
H1272      O1273   0.963       .  S
O1273     Zr3663   2.330       .  S
O1273     Zr3691   2.330       .  S
O1273     Zr1293   2.351       .  S
O1274     Zr1290   2.441       .  S
O1274      C1297   1.294   1_655  A
O1275     Zr1291   2.413       .  S
O1275      C1298   1.285       .  A
O1276     Zr1292   2.455       .  S
O1276      C1299   1.297       .  A
O1277     Zr1293   2.440       .  S
O1277      C1300   1.292       .  A
O1278     Zr1293   2.419       .  S
O1278      C1301   1.286       .  A
O1279     Zr1292   2.444       .  S
O1279      C1302   1.294       .  A
O1280     Zr1294   2.475   1_455  S
O1280      C1303   1.301       .  A
O1281     Zr3694   2.452       .  S
O1281      C1304   1.295       .  A
O1282     Zr1292   2.429       .  S
O1282      C1303   1.287       .  A
O1283     Zr1293   2.463       .  S
O1283      C1304   1.296       .  A
O1284     Zr1290   2.434   1_455  S
O1284      C1299   1.288       .  A
O1285     Zr1291   2.452   1_455  S
O1285      C1302   1.293       .  A
O1286     Zr3691   2.441       .  S
O1286      C1301   1.294       .  A
O1287     Zr3690   2.449       .  S
O1287      C1300   1.293       .  A
O1288     Zr1294   2.442   1_455  S
O1288      C1297   1.293       .  A
O1289     Zr1294   2.449       .  S
O1289      C1298   1.296       .  A
Zr1290     O3687   2.440       .  S
Zr1290     O3664   2.335       .  S
Zr1290     O1296   2.345   1_655  S
Zr1290     O3708   2.345       .  S
Zr1291     O3686   2.445       .  S
Zr1291     O3673   2.332       .  S
Zr1291     O3695   2.339       .  S
Zr1291     O1306   2.342   1_655  S
Zr1292     O1296   2.332       .  S
Zr1292     O1306   2.346       .  S
Zr1293     O1295   2.336       .  S
Zr1293     O1308   2.336       .  S
Zr1294     O3681   2.456       .  S
Zr1294     O3695   2.339       .  S
Zr1294     O1296   2.343   1_655  S
Zr1294     O3708   2.353       .  S
Zr1294     O1306   2.342   1_655  S
O1295     Zr3691   2.336       .  S
O1295     Zr3694   2.337       .  S
C1297      C1757   1.484       .  S
C1298      C1773   1.495       .  S
C1299      C1578   1.509       .  S
C1300      C1594   1.479       .  S
C1301      C1546   1.490       .  S
C1302      C1562   1.499       .  S
C1303      C1530   1.510       .  S
C1304      C1501   1.497       .  S
H1305      O1306   0.962       .  S
H1307      O1308   0.965       .  S
O1308     Zr3690   2.346       .  S
O1308     Zr3694   2.353       .  S
O1309     Zr1345   2.456       .  S
O1309      C1320   1.296       .  A
O1310     Zr1344   2.430   1_565  S
O1310      C1321   1.292       .  A
O1311     Zr1317   2.460   1_565  S
O1311      C1322   1.296       .  A
O1312      C1323   1.295       .  A
O1313     Zr1347   2.433       .  S
O1313      C1323   1.291       .  A
O1314     Zr1346   2.429       .  S
O1314      C1322   1.290       .  A
O1315     Zr1317   2.427   1_565  S
O1315      C1321   1.287       .  A
O1316     Zr1317   2.434       .  S
O1316      C1320   1.288       .  A
Zr1317     O1319   2.334   1_545  S
Zr1317     O1325   2.338   1_545  S
O1318     Zr1347   2.339       .  S
O1319     Zr1345   2.343   1_565  S
O1319     Zr1346   2.353       .  S
C1322      C1437   1.481       .  S
C1323      C1418   1.478       .  S
H1324      O1325   0.965       .  S
O1325     Zr1344   2.344   1_565  S
O1325     Zr1346   2.339       .  S
H1326      O1327   0.965       .  S
O1327     Zr1347   2.340       .  S
O1328     Zr1344   2.440       .  S
O1328      C1351   1.291       .  A
O1329     Zr1345   2.434       .  S
O1329      C1352   1.293       .  A
O1330     Zr1346   2.484       .  S
O1330      C1353   1.302       .  A
O1331     Zr1347   2.444       .  S
O1331      C1354   1.294       .  A
O1332     Zr1347   2.445       .  S
O1332      C1355   1.292       .  A
O1333     Zr1346   2.464       .  S
O1333      C1356   1.298       .  A
O1334     Zr1348   2.445   1_565  S
O1334      C1357   1.292       .  A
O1335      C1358   1.291       .  A
O1336     Zr1346   2.437       .  S
O1336      C1357   1.291       .  A
O1337     Zr1347   2.444       .  S
O1337      C1358   1.293       .  A
O1338     Zr1344   2.424   1_565  S
O1338      C1353   1.286       .  A
O1339     Zr1345   2.443   1_565  S
O1339      C1356   1.293       .  A
O1340      C1355   1.296       .  A
O1341      C1354   1.291       .  A
O1342     Zr1348   2.444       .  S
O1342      C1351   1.293       .  A
O1343     Zr1348   2.435       .  S
O1343      C1352   1.288       .  A
Zr1344     O1350   2.343   1_545  S
Zr1345     O1360   2.356   1_545  S
Zr1346     O1350   2.344       .  S
Zr1346     O1360   2.350       .  S
Zr1347     O1349   2.341       .  S
Zr1347     O1362   2.342       .  S
Zr1348     O1350   2.338   1_545  S
Zr1348     O1360   2.345   1_545  S
C1353      C1533   1.511       .  S
C1354      C1514   1.497       .  S
C1355      C1485   1.496       .  S
C1356      C1498   1.494       .  S
C1357      C1450   1.472       .  S
C1358      C1466   1.470       .  S
H1359      O1360   0.965       .  S
H1361      O1362   0.966       .  S
O1363     Zr1399   2.462       .  S
O1363      C1374   1.297       .  A
O1364     Zr1398   2.458       .  S
O1364      C1375   1.295       .  A
O1365     Zr1971   2.454       .  S
O1365      C1376   1.297       .  A
O1366     Zr1371   2.456       .  S
O1366      C1377   1.297       .  A
O1367     Zr1401   2.429       .  S
O1367      C1377   1.287       .  A
O1368     Zr1400   2.442       .  S
O1368      C1376   1.291       .  A
O1369     Zr1371   2.450       .  S
O1369      C1375   1.296       .  A
O1370     Zr1371   2.455       .  S
O1370      C1374   1.294       .  A
Zr1371     O1965   2.454       .  S
Zr1371     O1372   2.342       .  S
Zr1371     O1973   2.342       .  S
Zr1371     O1381   2.345       .  S
Zr1371     O1979   2.347       .  S
O1372     Zr1398   2.342       .  S
O1372     Zr1401   2.344       .  S
O1373     Zr1971   2.342       .  S
O1373     Zr1999   2.340   1_554  S
O1373     Zr1400   2.343       .  S
C1374      C2261   1.506       .  S
C1375      C2245   1.503       .  S
C1376      C1565   1.497       .  S
C1377      C1581   1.507       .  S
H1378      O1379   0.964       .  S
O1379     Zr1971   2.347       .  S
O1379     Zr1998   2.345       .  S
O1379     Zr1400   2.347       .  S
H1380      O1381   0.966       .  S
O1381     Zr1399   2.341       .  S
O1381     Zr1401   2.349       .  S
O1382     Zr1398   2.451       .  S
O1382      C1405   1.295       .  A
O1383     Zr1399   2.455       .  S
O1383      C1406   1.294       .  A
O1384     Zr1400   2.443       .  S
O1384      C1407   1.292       .  A
O1385     Zr1401   2.438       .  S
O1385      C1408   1.292       .  A
O1386     Zr1401   2.446       .  S
O1386      C1409   1.293       .  A
O1387     Zr1400   2.444       .  S
O1387      C1410   1.293       .  A
O1388     Zr2002   2.413   1_554  S
O1388      C1411   1.284       .  A
O1389     Zr1402   2.443       .  S
O1389      C1412   1.292       .  A
O1390     Zr1400   2.448       .  S
O1390      C1411   1.295       .  A
O1391     Zr1401   2.453       .  S
O1391      C1412   1.294       .  A
O1392     Zr1998   2.446       .  S
O1392      C1407   1.293       .  A
O1393     Zr1999   2.436   1_554  S
O1393      C1410   1.290       .  A
O1394     Zr1399   2.425       .  S
O1394      C1409   1.289       .  A
O1395     Zr1398   2.444       .  S
O1395      C1408   1.293       .  A
O1396     Zr1402   2.468       .  S
O1396      C1405   1.298       .  A
O1397     Zr1402   2.450       .  S
O1397      C1406   1.295       .  A
Zr1398     O1992   2.446       .  S
Zr1398     O1979   2.345       .  S
Zr1398     O2004   2.346       .  S
Zr1398     O1416   2.353       .  S
Zr1399     O1993   2.436       .  S
Zr1399     O1973   2.340       .  S
Zr1399     O1403   2.348       .  S
Zr1399     O2014   2.338       .  S
Zr1400     O1404   2.347       .  S
Zr1400     O1414   2.339       .  S
Zr1401     O1403   2.334       .  S
Zr1401     O1416   2.344       .  S
Zr1402     O1988   2.413       .  S
Zr1402     O1403   2.339       .  S
Zr1402     O2004   2.348       .  S
Zr1402     O1416   2.340       .  S
Zr1402     O2014   2.351       .  S
O1404     Zr1998   2.346       .  S
O1404     Zr2002   2.348   1_554  S
C1405      C2213   1.493       .  S
C1406      C2226   1.496       .  S
C1407      C1434   1.479       .  S
C1408      C1453   1.472       .  S
C1409      C1469   1.466       .  S
C1410      C1421   1.479       .  S
C1411      C1549   1.493       .  S
C1412      C1597   1.483       .  S
H1413      O1414   0.963       .  S
O1414     Zr1999   2.338   1_554  S
O1414     Zr2002   2.351   1_554  S
H1415      O1416   0.970       .  S
C1417      C1418   1.401       .  A
C1417      C1422   1.407       .  A
C1417      H1424   1.080       .  S
C1418      C1419   1.417       .  A
C1419      C1420   1.407       .  A
C1419      C1426   1.520       .  S
C1420      C1421   1.404       .  A
C1420      H1425   1.084       .  S
C1421      C1422   1.419       .  A
C1422      C1423   1.521       .  S
C1423      F1427   1.385       .  S
C1423      F1428   1.382       .  S
C1423      F1429   1.381       .  S
C1426      F1430   1.384       .  S
C1426      F1431   1.382       .  S
C1426      F1432   1.384       .  S
C1433      C1434   1.403       .  A
C1433      C1438   1.408       .  A
C1433      H1440   1.084       .  S
C1434      C1435   1.418       .  A
C1435      C1436   1.409       .  A
C1435      C1442   1.520       .  S
C1436      C1437   1.405       .  A
C1436      H1441   1.084       .  S
C1437      C1438   1.416       .  A
C1438      C1439   1.517       .  S
C1439      F1443   1.385       .  S
C1439      F1444   1.383       .  S
C1439      F1445   1.377       .  S
C1442      F1446   1.382       .  S
C1442      F1447   1.382       .  S
C1442      F1448   1.385       .  S
C1449      C1450   1.402       .  A
C1449      C1454   1.408       .  A
C1449      H1456   1.083       .  S
C1450      C1451   1.413       .  A
C1451      C1452   1.406       .  A
C1451      C1458   1.516       .  S
C1452      C1453   1.401       .  A
C1452      H1457   1.082       .  S
C1453      C1454   1.415       .  A
C1454      C1455   1.517       .  S
C1455      F1459   1.385       .  S
C1455      F1460   1.383       .  S
C1455      F1461   1.382       .  S
C1458      F1462   1.382       .  S
C1458      F1463   1.383       .  S
C1458      F1464   1.382       .  S
C1465      C1466   1.400       .  A
C1465      C1470   1.404       .  A
C1465      H1472   1.082       .  S
C1466      C1467   1.414       .  A
C1467      C1468   1.405       .  A
C1467      C1474   1.515       .  S
C1468      C1469   1.401       .  A
C1468      H1473   1.084       .  S
C1469      C1470   1.413       .  A
C1470      C1471   1.517       .  S
C1471      F1475   1.385       .  S
C1471      F1476   1.382       .  S
C1471      F1477   1.382       .  S
C1474      F1478   1.383       .  S
C1474      F1479   1.381       .  S
C1474      F1480   1.385       .  S
C1481      C1482   1.404       .  A
C1481      C1486   1.407       .  A
C1481      H1488   1.083       .  S
C1482      C1483   1.421       .  A
C1483      C1484   1.411       .  A
C1483      C1490   1.519       .  S
C1484      C1485   1.406       .  A
C1484      H1489   1.083       .  S
C1485      C1486   1.423       .  A
C1486      C1487   1.517       .  S
C1487      F1491   1.386       .  S
C1487      F1492   1.380       .  S
C1487      F1493   1.382       .  S
C1490      F1494   1.382       .  S
C1490      F1495   1.381       .  S
C1490      F1496   1.383       .  S
C1497      C1498   1.405       .  A
C1497      C1502   1.412       .  A
C1497      H1504   1.083       .  S
C1498      C1499   1.421       .  A
C1499      C1500   1.412       .  A
C1499      C1506   1.519       .  S
C1500      C1501   1.405       .  A
C1500      H1505   1.083       .  S
C1501      C1502   1.422       .  A
C1502      C1503   1.516       .  S
C1503      F1507   1.385       .  S
C1503      F1508   1.377       .  S
C1503      F1509   1.384       .  S
C1506      F1510   1.382       .  S
C1506      F1511   1.382       .  S
C1506      F1512   1.384       .  S
C1513      C1514   1.406       .  A
C1513      C1518   1.407       .  A
C1513      H1520   1.081       .  S
C1514      C1515   1.424       .  A
C1515      C1516   1.409       .  A
C1515      C1522   1.521       .  S
C1516      C1517   1.405       .  A
C1516      H1521   1.083       .  S
C1517      C1518   1.423       .  A
C1518      C1519   1.524       .  S
C1519      F1523   1.384       .  S
C1519      F1524   1.383       .  S
C1519      F1525   1.383       .  S
C1522      F1526   1.381       .  S
C1522      F1527   1.383       .  S
C1522      F1528   1.385       .  S
C1529      C1530   1.404       .  A
C1529      C1534   1.411       .  A
C1529      H1536   1.079       .  S
C1530      C1531   1.431       .  A
C1531      C1532   1.415       .  A
C1531      C1538   1.524       .  S
C1532      C1533   1.407       .  A
C1532      H1537   1.082       .  S
C1533      C1534   1.432       .  A
C1534      C1535   1.525       .  S
C1535      F1539   1.385       .  S
C1535      F1540   1.383       .  S
C1535      F1541   1.383       .  S
C1538      F1542   1.384       .  S
C1538      F1543   1.383       .  S
C1538      F1544   1.384       .  S
C1545      C1546   1.404       .  A
C1545      C1550   1.401       .  A
C1545      H1552   1.079       .  S
C1546      C1547   1.423       .  A
C1547      C1548   1.404       .  A
C1547      C1554   1.523       .  S
C1548      C1549   1.408       .  A
C1548      H1553   1.082       .  S
C1549      C1550   1.427       .  A
C1550      C1551   1.527       .  S
C1551      F1555   1.385       .  S
C1551      F1556   1.380       .  S
C1551      F1557   1.384       .  S
C1554      F1558   1.379       .  S
C1554      F1559   1.382       .  S
C1554      F1560   1.385       .  S
C1561      C1562   1.407       .  A
C1561      C1566   1.412       .  A
C1561      H1568   1.083       .  S
C1562      C1563   1.422       .  A
C1563      C1564   1.407       .  A
C1563      C1570   1.515       .  S
C1564      C1565   1.404       .  A
C1564      H1569   1.083       .  S
C1565      C1566   1.424       .  A
C1566      C1567   1.520       .  S
C1567      F1571   1.385       .  S
C1567      F1572   1.382       .  S
C1567      F1573   1.381       .  S
C1570      F1574   1.384       .  S
C1570      F1575   1.382       .  S
C1570      F1576   1.385       .  S
C1577      C1578   1.408       .  A
C1577      C1582   1.410       .  A
C1577      H1584   1.081       .  S
C1578      C1579   1.430       .  A
C1579      C1580   1.410       .  A
C1579      C1586   1.524       .  S
C1580      C1581   1.407       .  A
C1580      H1585   1.081       .  S
C1581      C1582   1.429       .  A
C1582      C1583   1.525       .  S
C1583      F1587   1.385       .  S
C1583      F1588   1.384       .  S
C1583      F1589   1.383       .  S
C1586      F1590   1.383       .  S
C1586      F1591   1.383       .  S
C1586      F1592   1.385       .  S
C1593      C1594   1.400       .  A
C1593      C1598   1.408       .  A
C1593      H1600   1.083       .  S
C1594      C1595   1.415       .  A
C1595      C1596   1.411       .  A
C1595      C1602   1.516       .  S
C1596      C1597   1.405       .  A
C1596      H1601   1.083       .  S
C1597      C1598   1.416       .  A
C1598      C1599   1.514       .  S
C1599      F1603   1.383       .  S
C1599      F1604   1.384       .  S
C1599      F1605   1.382       .  S
C1602      F1606   1.383       .  S
C1602      F1607   1.383       .  S
C1602      F1608   1.383       .  S
C1609      C1610   1.404       .  A
C1609      C1614   1.410       .  A
C1609      H1616   1.085       .  S
C1610      C2211   1.418   1_554  A
C1611      C2210   1.418       .  A
C1611      C1612   1.413       .  A
C1611      C1618   1.520       .  S
C1612      C2213   1.408       .  A
C1612      H1617   1.083       .  S
C1613      C2005   1.493       .  S
C1613      C2212   1.408   1_554  A
C1613      C1614   1.424       .  A
C1614      C1615   1.518       .  S
C1615      F2219   1.384       .  S
C1615      F2220   1.382       .  S
C1615      F1621   1.380       .  S
C1618      F1622   1.382       .  S
C1618      F2223   1.382       .  S
C1618      F2224   1.384       .  S
F1619      C2215   1.384       .  S
F1620      C2215   1.382       .  S
F1623      C2218   1.382       .  S
F1624      C2218   1.384       .  S
C1625      C1626   1.407       .  A
C1625      C1630   1.414       .  A
C1625      H1632   1.083       .  S
C1626      C2006   1.496       .  S
C1626      C2227   1.421   1_556  A
C1627      C2226   1.421       .  A
C1627      C1628   1.411       .  A
C1627      C1634   1.521       .  S
C1628      C2229   1.408       .  A
C1628      H1633   1.083       .  S
C1629      C2228   1.408   1_556  A
C1629      C1630   1.421       .  A
C1630      C1631   1.519       .  S
C1631      F2235   1.383       .  S
C1631      F2236   1.384       .  S
C1631      F1637   1.382       .  S
C1634      F1638   1.383       .  S
C1634      F2239   1.383       .  S
C1634      F2240   1.384       .  S
F1635      C2231   1.383       .  S
F1636      C2231   1.384       .  S
F1639      C2234   1.383       .  S
F1640      C2234   1.384       .  S
C1641      C1642   1.406       .  A
C1641      C1646   1.409       .  A
C1641      H1648   1.083       .  S
C1642      C2243   1.420   1_554  A
C1643      C2242   1.420       .  A
C1643      C1644   1.413       .  A
C1643      C1650   1.520       .  S
C1644      C2245   1.411       .  A
C1644      H1649   1.082       .  S
C1645      C1975   1.503       .  S
C1645      C2244   1.411   1_554  A
C1645      C1646   1.425       .  A
C1646      C1647   1.521       .  S
C1647      F2251   1.386       .  S
C1647      F2252   1.382       .  S
C1647      F1653   1.380       .  S
C1650      F1654   1.384       .  S
C1650      F2255   1.383       .  S
C1650      F2256   1.384       .  S
F1651      C2247   1.386       .  S
F1652      C2247   1.382       .  S
F1655      C2250   1.383       .  S
F1656      C2250   1.384       .  S
C1657      C1658   1.405   1_554  A
C1657      C1662   1.412       .  A
C1657      H1664   1.083       .  S
C1658      C2259   1.423       .  A
C1659      C2258   1.423       .  A
C1659      C1660   1.416       .  A
C1659      C1666   1.521       .  S
C1660      C2261   1.410       .  A
C1660      H1665   1.083       .  S
C1661      C1974   1.506       .  S
C1661      C2260   1.410       .  A
C1661      C1662   1.425   1_556  A
C1662      C1663   1.521       .  S
C1663      F1667   1.385       .  S
C1663      F2268   1.383       .  S
C1663      F1669   1.382       .  S
C1666      F1670   1.384       .  S
C1666      F2271   1.383       .  S
C1666      F1672   1.385       .  S
F1668      C2263   1.383       .  S
F1671      C2266   1.383       .  S
C1673      C1674   1.409       .  A
C1673      C1678   1.406       .  A
C1673      H1680   1.081       .  S
C1675      C1676   1.405       .  A
C1675      C1682   1.525       .  S
C1676      H1681   1.079       .  S
C1677      C1678   1.425       .  A
C1678      C1679   1.524       .  S
C1679      F1683   1.385       .  S
C1679      F1685   1.383       .  S
C1682      F1686   1.384       .  S
C1682      F1688   1.385       .  S
C1689      C1690   1.403       .  A
C1689      C1694   1.407       .  A
C1689      H1696   1.083       .  S
C1691      C1692   1.409       .  A
C1691      C1698   1.522       .  S
C1692      H1697   1.083       .  S
C1693      C1694   1.420       .  A
C1694      C1695   1.521       .  S
C1695      F1699   1.385       .  S
C1695      F1701   1.382       .  S
C1698      F1702   1.384       .  S
C1698      F1704   1.385       .  S
C1705      C1706   1.407       .  A
C1705      C1710   1.406       .  A
C1705      H1712   1.082       .  S
C1707      C1708   1.406       .  A
C1707      C1714   1.524       .  S
C1708      H1713   1.081       .  S
C1709      C1710   1.426       .  A
C1710      C1711   1.522       .  S
C1711      F1717   1.380       .  S
C1714      F1718   1.384   1_545  S
C1721      C1726   1.407       .  A
C1721      H1728   1.082       .  S
C1722      C1723   1.429       .  A
C1723      C1724   1.411       .  A
C1723      C1730   1.527       .  S
C1724      C1725   1.409       .  A
C1724      H1729   1.082       .  S
C1726      C1727   1.525       .  S
C1727      F1733   1.379   1_545  S
C1730      F1734   1.384       .  S
C1737      C1738   1.400   1_455  A
C1737      C1742   1.403       .  A
C1737      H1744   1.083       .  S
C1738      C4139   1.423       .  A
C1739      C4138   1.423       .  A
C1739      C1740   1.411       .  A
C1739      C1746   1.522       .  S
C1740      C4141   1.406       .  A
C1740      H1745   1.083       .  S
C1741      C4140   1.406   1_455  A
C1741      C1742   1.421       .  A
C1742      C1743   1.520       .  S
C1743      F1747   1.385       .  S
C1743      F1748   1.384       .  S
C1743      F1749   1.382       .  S
C1746      F1750   1.383       .  S
C1746      F1751   1.382       .  S
C1746      F1752   1.384       .  S
C1753      C1754   1.403   1_455  A
C1753      C1758   1.404       .  A
C1753      H1760   1.083       .  S
C1754      C4155   1.426       .  A
C1755      C4154   1.426       .  A
C1755      C1756   1.408       .  A
C1755      C1762   1.521       .  S
C1756      C4157   1.403       .  A
C1756      H1761   1.083       .  S
C1757      C4156   1.403   1_455  A
C1757      C1758   1.417       .  A
C1758      C1759   1.516       .  S
C1759      F1763   1.385       .  S
C1759      F1764   1.381       .  S
C1759      F1765   1.384       .  S
C1762      F1766   1.380       .  S
C1762      F1767   1.382       .  S
C1762      F1768   1.386       .  S
C1769      C1770   1.407       .  A
C1769      C1774   1.403       .  A
C1769      H1776   1.082       .  S
C1770      C4171   1.419       .  A
C1771      C4170   1.419       .  A
C1771      C1772   1.399       .  A
C1771      C1778   1.510       .  S
C1772      C4173   1.404       .  A
C1772      H1777   1.082       .  S
C1773      C4172   1.405       .  A
C1773      C1774   1.427       .  A
C1774      C1775   1.519       .  S
C1775      F4179   1.376   1_655  S
C1775      F4180   1.381       .  S
C1775      F1781   1.386       .  S
C1778      F1782   1.384       .  S
C1778      F4183   1.380       .  S
C1778      F4184   1.385       .  S
F1779      C4175   1.376       .  S
F1780      C4175   1.381       .  S
F1783      C4178   1.378       .  S
F1784      C4178   1.385       .  S
C1785      C1786   1.405       .  A
C1785      C1790   1.407       .  A
C1785      H1792   1.084       .  S
C1786      C4187   1.420   1_455  A
C1787      C4186   1.421       .  A
C1787      C1788   1.403       .  A
C1787      C1794   1.520       .  S
C1788      C4189   1.398       .  A
C1788      H1793   1.084       .  S
C1789      C4188   1.399   1_455  A
C1789      C1790   1.413       .  A
C1790      C1791   1.517       .  S
C1791      F1795   1.383       .  S
C1791      F1796   1.385       .  S
C1791      F1797   1.378       .  S
C1794      F1798   1.382       .  S
C1794      F1799   1.381       .  S
C1794      F1800   1.385       .  S
O1801     Zr1837   2.437       .  S
O1801      C1812   1.292       .  A
O1802     Zr1836   2.450       .  S
O1802      C1813   1.294       .  A
O1803     Zr1809   2.457       .  S
O1803      C1814   1.297       .  A
O1804     Zr4209   2.465       .  S
O1804      C1815   1.296       .  A
O1805     Zr1839   2.444       .  S
O1805      C1815   1.294       .  A
O1806     Zr1838   2.457       .  S
O1806      C1814   1.294       .  A
O1807      C1813   1.290       .  A
O1808     Zr1809   2.429       .  S
O1808      C1812   1.290       .  A
Zr1809     O4204   2.463   1_455  S
Zr1809     O3610   2.336   1_455  S
Zr1809     O1811   2.346       .  S
Zr1809     O4219   2.338   1_455  S
O1810     Zr3609   2.334       .  S
O1810     Zr4236   2.343       .  S
O1811     Zr1837   2.340       .  S
O1811     Zr1838   2.337       .  S
C1812      C2389   1.470       .  S
C1813      C2341   1.486       .  S
C1814      C2258   1.502       .  S
C1815      C2229   1.498       .  S
H1816      O1817   0.965       .  S
O1817     Zr1836   2.344       .  S
H1818      O1819   0.965       .  S
O1819     Zr4209   2.340       .  S
O1819     Zr4237   2.344       .  S
O1819     Zr1839   2.339       .  S
O1820      C1843   1.298       .  A
O1821      C1844   1.292       .  A
O1822      C1845   1.290       .  A
O1823      C1846   1.294       .  A
O1824     Zr1839   2.457       .  S
O1824      C1847   1.297       .  A
O1825     Zr1838   2.441       .  S
O1825      C1848   1.294       .  A
O1826     Zr1840   2.458   1_455  S
O1826      C1849   1.295       .  A
O1827     Zr4240   2.446       .  S
O1827      C1850   1.293       .  A
O1828      C1849   1.293       .  A
O1829      C1850   1.295       .  A
O1830     Zr1836   2.453       .  S
O1830      C1845   1.296       .  A
O1831     Zr1837   2.439       .  S
O1831      C1848   1.289       .  A
O1832     Zr4237   2.428       .  S
O1832      C1847   1.286       .  A
O1833     Zr4236   2.431       .  S
O1833      C1846   1.288       .  A
O1834      C1843   1.287       .  A
O1835     Zr1840   2.412       .  S
O1835      C1844   1.288       .  A
Zr1836     O4233   2.432   1_455  S
Zr1836     O4210   2.344   1_455  S
Zr1836     O3054   2.346   1_455  S
Zr1837     O4232   2.425   1_455  S
Zr1837     O4219   2.343   1_455  S
Zr1837     O3041   2.338   1_455  S
Zr1840     O4227   2.453       .  S
Zr1840     O4241   2.338       .  S
Zr1840     O3654   2.337       .  S
Zr1840     O1852   2.343   1_655  S
O1841     Zr3037   2.337   1_565  S
O1841     Zr4240   2.339       .  S
C1843      C2354   1.489       .  S
C1844      C2370   1.496       .  S
C1845      C2290   1.486       .  S
C1846      C2274   1.499       .  S
C1847      C2322   1.504       .  S
C1848      C2309   1.500       .  S
C1849      C2242   1.496       .  S
C1850      C2210   1.490       .  S
H1851      O1852   0.966       .  S
H1853      O1854   0.963       .  S
O1854     Zr3036   2.344       .  S
O1854     Zr3640   2.338   1_556  S
O1855     Zr1891   2.419   1_455  S
O1855      C1866   1.287       .  A
O1856     Zr1890   2.454       .  S
O1856      C1867   1.296       .  A
O1857     Zr1863   2.449       .  S
O1857      C1868   1.295       .  A
O1858     Zr4263   2.446       .  S
O1858      C1869   1.293       .  A
O1859     Zr1893   2.441       .  S
O1859      C1869   1.294       .  A
O1860     Zr1892   2.426       .  S
O1860      C1868   1.287       .  A
O1861     Zr1863   2.416   1_655  S
O1861      C1867   1.286       .  A
O1862     Zr1863   2.452       .  S
O1862      C1866   1.294       .  A
Zr1863     O4258   2.448   1_455  S
Zr1863     O4264   2.352   1_455  S
Zr1863     O1865   2.331       .  S
Zr1863     O4273   2.331   1_455  S
Zr1863     O1871   2.349       .  S
O1864     Zr4263   2.353       .  S
O1864     Zr4290   2.335       .  S
O1864     Zr1893   2.340       .  S
O1865     Zr1891   2.330   1_455  S
O1865     Zr1892   2.339       .  S
C1866      C2386   1.476       .  S
C1867      C2338   1.482       .  S
C1868      C2117   1.491       .  S
C1869      C2082   1.491       .  S
H1870      O1871   0.968       .  S
O1871     Zr1890   2.342   1_455  S
O1871     Zr1892   2.343       .  S
H1872      O1873   0.963       .  S
O1873     Zr4263   2.329       .  S
O1873     Zr4291   2.330       .  S
O1873     Zr1893   2.351       .  S
O1874     Zr1890   2.441       .  S
O1874      C1897   1.294   1_655  A
O1875     Zr1891   2.413       .  S
O1875      C1898   1.285       .  A
O1876     Zr1892   2.455       .  S
O1876      C1899   1.297       .  A
O1877     Zr1893   2.440       .  S
O1877      C1900   1.292       .  A
O1878     Zr1893   2.418       .  S
O1878      C1901   1.286       .  A
O1879     Zr1892   2.444       .  S
O1879      C1902   1.294       .  A
O1880     Zr1894   2.475   1_455  S
O1880      C1903   1.300       .  A
O1881     Zr4294   2.453       .  S
O1881      C1904   1.295       .  A
O1882     Zr1892   2.429       .  S
O1882      C1903   1.287       .  A
O1883     Zr1893   2.463       .  S
O1883      C1904   1.296       .  A
O1884     Zr1890   2.434   1_455  S
O1884      C1899   1.288       .  A
O1885     Zr1891   2.452   1_455  S
O1885      C1902   1.293       .  A
O1886     Zr4291   2.441       .  S
O1886      C1901   1.294       .  A
O1887     Zr4290   2.448       .  S
O1887      C1900   1.293       .  A
O1888     Zr1894   2.442   1_455  S
O1888      C1897   1.292       .  A
O1889     Zr1894   2.449       .  S
O1889      C1898   1.296       .  A
Zr1890     O4287   2.439       .  S
Zr1890     O4264   2.336       .  S
Zr1890     O1896   2.345   1_655  S
Zr1890     O4308   2.345       .  S
Zr1891     O4286   2.445       .  S
Zr1891     O4273   2.332       .  S
Zr1891     O4295   2.339       .  S
Zr1891     O1906   2.342   1_655  S
Zr1892     O1896   2.332       .  S
Zr1892     O1906   2.345       .  S
Zr1893     O1895   2.336       .  S
Zr1893     O1908   2.335       .  S
Zr1894     O4281   2.456       .  S
Zr1894     O4295   2.339       .  S
Zr1894     O1896   2.343   1_655  S
Zr1894     O4308   2.353       .  S
Zr1894     O1906   2.342   1_655  S
O1895     Zr4291   2.336       .  S
O1895     Zr4294   2.337       .  S
C1897      C2357   1.484       .  S
C1898      C2373   1.495       .  S
C1899      C2178   1.509       .  S
C1900      C2194   1.479       .  S
C1901      C2146   1.490       .  S
C1902      C2162   1.499       .  S
C1903      C2130   1.510       .  S
C1904      C2101   1.497       .  S
H1905      O1906   0.962       .  S
H1907      O1908   0.965       .  S
O1908     Zr4290   2.346       .  S
O1908     Zr4294   2.353       .  S
O1909     Zr1945   2.455       .  S
O1909      C1920   1.296       .  A
O1910     Zr1944   2.430   1_565  S
O1910      C1921   1.292       .  A
O1911     Zr1917   2.460   1_565  S
O1911      C1922   1.296       .  A
O1912      C1923   1.295       .  A
O1913     Zr1947   2.433       .  S
O1913      C1923   1.291       .  A
O1914     Zr1946   2.429       .  S
O1914      C1922   1.290       .  A
O1915     Zr1917   2.427   1_565  S
O1915      C1921   1.287       .  A
O1916     Zr1917   2.435       .  S
O1916      C1920   1.288       .  A
Zr1917     O1919   2.334   1_545  S
Zr1917     O1925   2.339   1_545  S
O1918     Zr1947   2.339       .  S
O1919     Zr1945   2.343   1_565  S
O1919     Zr1946   2.353       .  S
C1922      C2037   1.481       .  S
C1923      C2018   1.478       .  S
H1924      O1925   0.965       .  S
O1925     Zr1944   2.344   1_565  S
O1925     Zr1946   2.339       .  S
H1926      O1927   0.965       .  S
O1927     Zr1947   2.340       .  S
O1928     Zr1944   2.440       .  S
O1928      C1951   1.291       .  A
O1929     Zr1945   2.434       .  S
O1929      C1952   1.293       .  A
O1930     Zr1946   2.484       .  S
O1930      C1953   1.302       .  A
O1931     Zr1947   2.444       .  S
O1931      C1954   1.294       .  A
O1932     Zr1947   2.445       .  S
O1932      C1955   1.292       .  A
O1933     Zr1946   2.464       .  S
O1933      C1956   1.297       .  A
O1934     Zr1948   2.445   1_565  S
O1934      C1957   1.292       .  A
O1935      C1958   1.291       .  A
O1936     Zr1946   2.437       .  S
O1936      C1957   1.291       .  A
O1937     Zr1947   2.443       .  S
O1937      C1958   1.292       .  A
O1938     Zr1944   2.424   1_565  S
O1938      C1953   1.286       .  A
O1939     Zr1945   2.444   1_565  S
O1939      C1956   1.293       .  A
O1940      C1955   1.296       .  A
O1941      C1954   1.291       .  A
O1942     Zr1948   2.444       .  S
O1942      C1951   1.293       .  A
O1943     Zr1948   2.435       .  S
O1943      C1952   1.289       .  A
Zr1944     O1950   2.343   1_545  S
Zr1945     O1960   2.356   1_545  S
Zr1946     O1950   2.344       .  S
Zr1946     O1960   2.351       .  S
Zr1947     O1949   2.341       .  S
Zr1947     O1962   2.342       .  S
Zr1948     O1950   2.338   1_545  S
Zr1948     O1960   2.345   1_545  S
C1953      C2133   1.511       .  S
C1954      C2114   1.497       .  S
C1955      C2085   1.496       .  S
C1956      C2098   1.494       .  S
C1957      C2050   1.472       .  S
C1958      C2066   1.470       .  S
H1959      O1960   0.965       .  S
H1961      O1962   0.966       .  S
O1963     Zr1999   2.462       .  S
O1963      C1974   1.297       .  A
O1964     Zr1998   2.458       .  S
O1964      C1975   1.295       .  A
O1965      C1976   1.297       .  A
O1966     Zr1971   2.456   1_556  S
O1966      C1977   1.297       .  A
O1967     Zr2001   2.429       .  S
O1967      C1977   1.287       .  A
O1968     Zr2000   2.442       .  S
O1968      C1976   1.291       .  A
O1969     Zr1971   2.451       .  S
O1969      C1975   1.296       .  A
O1970     Zr1971   2.455   1_556  S
O1970      C1974   1.294       .  A
Zr1971     O1972   2.342   1_554  S
Zr1971     O1981   2.345   1_554  S
O1972     Zr1998   2.342   1_556  S
O1972     Zr2001   2.344       .  S
O1973     Zr2000   2.343       .  S
C1976      C2165   1.497       .  S
C1977      C2181   1.507       .  S
H1978      O1979   0.964       .  S
O1979     Zr2000   2.347       .  S
H1980      O1981   0.966       .  S
O1981     Zr1999   2.341       .  S
O1981     Zr2001   2.349       .  S
O1982     Zr1998   2.451       .  S
O1982      C2005   1.295       .  A
O1983     Zr1999   2.455       .  S
O1983      C2006   1.294       .  A
O1984     Zr2000   2.443       .  S
O1984      C2007   1.292       .  A
O1985     Zr2001   2.438       .  S
O1985      C2008   1.292       .  A
O1986     Zr2001   2.445       .  S
O1986      C2009   1.292       .  A
O1987     Zr2000   2.444       .  S
O1987      C2010   1.293       .  A
O1988      C2011   1.283       .  A
O1989     Zr2002   2.444       .  S
O1989      C2012   1.292       .  A
O1990     Zr2000   2.447       .  S
O1990      C2011   1.295       .  A
O1991     Zr2001   2.453       .  S
O1991      C2012   1.294       .  A
O1992      C2007   1.293       .  A
O1993      C2010   1.290       .  A
O1994     Zr1999   2.425       .  S
O1994      C2009   1.289       .  A
O1995     Zr1998   2.444   1_556  S
O1995      C2008   1.292       .  A
O1996     Zr2002   2.468   1_554  S
O1996      C2005   1.298       .  A
O1997     Zr2002   2.450       .  S
O1997      C2006   1.295       .  A
Zr1998     O2016   2.353   1_554  S
Zr1999     O2003   2.348       .  S
Zr2000     O2004   2.347       .  S
Zr2000     O2014   2.339       .  S
Zr2001     O2003   2.334       .  S
Zr2001     O2016   2.344       .  S
Zr2002     O2003   2.340       .  S
Zr2002     O2016   2.340       .  S
C2007      C2034   1.479       .  S
C2008      C2053   1.472       .  S
C2009      C2069   1.466       .  S
C2010      C2021   1.479       .  S
C2011      C2149   1.493       .  S
C2012      C2197   1.483       .  S
H2013      O2014   0.963       .  S
H2015      O2016   0.970       .  S
C2017      C2018   1.401       .  A
C2017      C2022   1.407       .  A
C2017      H2024   1.080       .  S
C2018      C2019   1.417       .  A
C2019      C2020   1.407       .  A
C2019      C2026   1.520       .  S
C2020      C2021   1.404       .  A
C2020      H2025   1.084       .  S
C2021      C2022   1.419       .  A
C2022      C2023   1.521       .  S
C2023      F2027   1.385       .  S
C2023      F2028   1.382       .  S
C2023      F2029   1.381       .  S
C2026      F2030   1.384       .  S
C2026      F2031   1.382       .  S
C2026      F2032   1.384       .  S
C2033      C2034   1.403       .  A
C2033      C2038   1.408       .  A
C2033      H2040   1.084       .  S
C2034      C2035   1.418       .  A
C2035      C2036   1.409       .  A
C2035      C2042   1.520       .  S
C2036      C2037   1.405       .  A
C2036      H2041   1.084       .  S
C2037      C2038   1.416       .  A
C2038      C2039   1.517       .  S
C2039      F2043   1.385       .  S
C2039      F2044   1.383       .  S
C2039      F2045   1.377       .  S
C2042      F2046   1.382       .  S
C2042      F2047   1.382       .  S
C2042      F2048   1.385       .  S
C2049      C2050   1.402       .  A
C2049      C2054   1.408       .  A
C2049      H2056   1.083       .  S
C2050      C2051   1.413       .  A
C2051      C2052   1.406       .  A
C2051      C2058   1.516       .  S
C2052      C2053   1.401       .  A
C2052      H2057   1.082       .  S
C2053      C2054   1.415       .  A
C2054      C2055   1.517       .  S
C2055      F2059   1.385       .  S
C2055      F2060   1.383       .  S
C2055      F2061   1.382       .  S
C2058      F2062   1.382       .  S
C2058      F2063   1.383       .  S
C2058      F2064   1.382       .  S
C2065      C2066   1.400       .  A
C2065      C2070   1.404       .  A
C2065      H2072   1.082       .  S
C2066      C2067   1.414       .  A
C2067      C2068   1.405       .  A
C2067      C2074   1.515       .  S
C2068      C2069   1.401       .  A
C2068      H2073   1.084       .  S
C2069      C2070   1.413       .  A
C2070      C2071   1.517       .  S
C2071      F2075   1.385       .  S
C2071      F2076   1.382       .  S
C2071      F2077   1.382       .  S
C2074      F2078   1.383       .  S
C2074      F2079   1.381       .  S
C2074      F2080   1.385       .  S
C2081      C2082   1.404       .  A
C2081      C2086   1.407       .  A
C2081      H2088   1.083       .  S
C2082      C2083   1.421       .  A
C2083      C2084   1.411       .  A
C2083      C2090   1.519       .  S
C2084      C2085   1.406       .  A
C2084      H2089   1.083       .  S
C2085      C2086   1.423       .  A
C2086      C2087   1.517       .  S
C2087      F2091   1.386       .  S
C2087      F2092   1.380       .  S
C2087      F2093   1.382       .  S
C2090      F2094   1.382       .  S
C2090      F2095   1.381       .  S
C2090      F2096   1.383       .  S
C2097      C2098   1.405       .  A
C2097      C2102   1.413       .  A
C2097      H2104   1.083       .  S
C2098      C2099   1.421       .  A
C2099      C2100   1.412       .  A
C2099      C2106   1.519       .  S
C2100      C2101   1.405       .  A
C2100      H2105   1.083       .  S
C2101      C2102   1.422       .  A
C2102      C2103   1.516       .  S
C2103      F2107   1.385       .  S
C2103      F2108   1.377       .  S
C2103      F2109   1.384       .  S
C2106      F2110   1.382       .  S
C2106      F2111   1.382       .  S
C2106      F2112   1.384       .  S
C2113      C2114   1.406       .  A
C2113      C2118   1.407       .  A
C2113      H2120   1.081       .  S
C2114      C2115   1.425       .  A
C2115      C2116   1.409       .  A
C2115      C2122   1.521       .  S
C2116      C2117   1.405       .  A
C2116      H2121   1.083       .  S
C2117      C2118   1.423       .  A
C2118      C2119   1.524       .  S
C2119      F2123   1.384       .  S
C2119      F2124   1.383       .  S
C2119      F2125   1.383       .  S
C2122      F2126   1.381       .  S
C2122      F2127   1.383       .  S
C2122      F2128   1.385       .  S
C2129      C2130   1.404       .  A
C2129      C2134   1.411       .  A
C2129      H2136   1.079       .  S
C2130      C2131   1.431       .  A
C2131      C2132   1.415       .  A
C2131      C2138   1.524       .  S
C2132      C2133   1.407       .  A
C2132      H2137   1.082       .  S
C2133      C2134   1.432       .  A
C2134      C2135   1.525       .  S
C2135      F2139   1.385       .  S
C2135      F2140   1.383       .  S
C2135      F2141   1.383       .  S
C2138      F2142   1.384       .  S
C2138      F2143   1.383       .  S
C2138      F2144   1.384       .  S
C2145      C2146   1.404       .  A
C2145      C2150   1.401       .  A
C2145      H2152   1.079       .  S
C2146      C2147   1.423       .  A
C2147      C2148   1.404       .  A
C2147      C2154   1.523       .  S
C2148      C2149   1.408       .  A
C2148      H2153   1.082       .  S
C2149      C2150   1.427       .  A
C2150      C2151   1.527       .  S
C2151      F2155   1.385       .  S
C2151      F2156   1.380       .  S
C2151      F2157   1.384       .  S
C2154      F2158   1.379       .  S
C2154      F2159   1.382       .  S
C2154      F2160   1.385       .  S
C2161      C2162   1.407       .  A
C2161      C2166   1.412       .  A
C2161      H2168   1.083       .  S
C2162      C2163   1.422       .  A
C2163      C2164   1.407       .  A
C2163      C2170   1.515       .  S
C2164      C2165   1.404       .  A
C2164      H2169   1.083       .  S
C2165      C2166   1.424       .  A
C2166      C2167   1.520       .  S
C2167      F2171   1.385       .  S
C2167      F2172   1.382       .  S
C2167      F2173   1.380       .  S
C2170      F2174   1.384       .  S
C2170      F2175   1.382       .  S
C2170      F2176   1.385       .  S
C2177      C2178   1.408       .  A
C2177      C2182   1.410       .  A
C2177      H2184   1.081       .  S
C2178      C2179   1.429       .  A
C2179      C2180   1.410       .  A
C2179      C2186   1.524       .  S
C2180      C2181   1.407       .  A
C2180      H2185   1.081       .  S
C2181      C2182   1.429       .  A
C2182      C2183   1.525       .  S
C2183      F2187   1.385       .  S
C2183      F2188   1.384       .  S
C2183      F2189   1.383       .  S
C2186      F2190   1.384       .  S
C2186      F2191   1.383       .  S
C2186      F2192   1.385       .  S
C2193      C2194   1.400       .  A
C2193      C2198   1.408       .  A
C2193      H2200   1.083       .  S
C2194      C2195   1.415       .  A
C2195      C2196   1.411       .  A
C2195      C2202   1.516       .  S
C2196      C2197   1.405       .  A
C2196      H2201   1.083       .  S
C2197      C2198   1.416       .  A
C2198      C2199   1.514       .  S
C2199      F2203   1.383       .  S
C2199      F2204   1.384       .  S
C2199      F2205   1.382       .  S
C2202      F2206   1.383       .  S
C2202      F2207   1.383       .  S
C2202      F2208   1.383       .  S
C2209      C2210   1.404       .  A
C2209      C2214   1.410       .  A
C2209      H2216   1.085       .  S
C2211      C2212   1.413       .  A
C2211      C2218   1.520       .  S
C2212      H2217   1.083       .  S
C2213      C2214   1.424       .  A
C2214      C2215   1.518       .  S
C2215      F2221   1.380       .  S
C2218      F2222   1.382       .  S
C2225      C2226   1.407       .  A
C2225      C2230   1.414       .  A
C2225      H2232   1.083       .  S
C2227      C2228   1.411       .  A
C2227      C2234   1.521       .  S
C2228      H2233   1.083       .  S
C2229      C2230   1.421       .  A
C2230      C2231   1.519       .  S
C2231      F2237   1.382       .  S
C2234      F2238   1.383       .  S
C2241      C2242   1.406       .  A
C2241      C2246   1.409       .  A
C2241      H2248   1.083       .  S
C2243      C2244   1.413       .  A
C2243      C2250   1.520       .  S
C2244      H2249   1.082       .  S
C2245      C2246   1.425       .  A
C2246      C2247   1.521       .  S
C2247      F2253   1.380       .  S
C2250      F2254   1.384       .  S
C2257      C2258   1.405       .  A
C2257      C2262   1.412       .  A
C2257      H2264   1.083       .  S
C2259      C2260   1.416       .  A
C2259      C2266   1.521       .  S
C2260      H2265   1.083       .  S
C2261      C2262   1.425       .  A
C2262      C2263   1.521       .  S
C2263      F2267   1.385       .  S
C2263      F2269   1.382       .  S
C2266      F2270   1.384       .  S
C2266      F2272   1.385       .  S
C2273      C2274   1.409       .  A
C2273      C2278   1.406       .  A
C2273      H2280   1.081       .  S
C2275      C2276   1.405       .  A
C2275      C2282   1.525       .  S
C2276      H2281   1.079       .  S
C2277      C2278   1.424       .  A
C2278      C2279   1.524       .  S
C2279      F2283   1.385       .  S
C2279      F2285   1.383       .  S
C2282      F2286   1.384       .  S
C2282      F2288   1.385       .  S
C2289      C2290   1.403       .  A
C2289      C2294   1.407       .  A
C2289      H2296   1.083       .  S
C2291      C2292   1.409       .  A
C2291      C2298   1.522       .  S
C2292      H2297   1.083       .  S
C2293      C2294   1.421       .  A
C2294      C2295   1.521       .  S
C2295      F2299   1.385       .  S
C2295      F2301   1.381       .  S
C2298      F2302   1.384       .  S
C2298      F2304   1.385       .  S
C2305      C2306   1.407       .  A
C2305      C2310   1.406       .  A
C2305      H2312   1.082       .  S
C2307      C2308   1.406       .  A
C2307      C2314   1.524       .  S
C2308      H2313   1.081       .  S
C2309      C2310   1.426       .  A
C2310      C2311   1.523       .  S
C2311      F2317   1.380       .  S
C2314      F2318   1.384   1_545  S
C2321      C2326   1.407       .  A
C2321      H2328   1.082       .  S
C2322      C2323   1.429       .  A
C2323      C2324   1.411       .  A
C2323      C2330   1.527       .  S
C2324      C2325   1.409       .  A
C2324      H2329   1.082       .  S
C2326      C2327   1.525       .  S
C2327      F2333   1.379   1_545  S
C2330      F2334   1.384       .  S
C2337      C2338   1.400   1_455  A
C2337      C2342   1.404       .  A
C2337      H2344   1.083       .  S
C2338      C4739   1.423       .  A
C2339      C4738   1.423       .  A
C2339      C2340   1.411       .  A
C2339      C2346   1.522       .  S
C2340      C4741   1.406       .  A
C2340      H2345   1.083       .  S
C2341      C4740   1.406   1_455  A
C2341      C2342   1.421       .  A
C2342      C2343   1.520       .  S
C2343      F2347   1.385       .  S
C2343      F2348   1.384       .  S
C2343      F2349   1.382       .  S
C2346      F2350   1.383       .  S
C2346      F2351   1.382       .  S
C2346      F2352   1.384       .  S
C2353      C2354   1.403   1_455  A
C2353      C2358   1.404       .  A
C2353      H2360   1.083       .  S
C2354      C4755   1.426       .  A
C2355      C4754   1.426       .  A
C2355      C2356   1.408       .  A
C2355      C2362   1.521       .  S
C2356      C4757   1.403       .  A
C2356      H2361   1.083       .  S
C2357      C4756   1.403   1_455  A
C2357      C2358   1.417       .  A
C2358      C2359   1.516       .  S
C2359      F2363   1.385       .  S
C2359      F2364   1.381       .  S
C2359      F2365   1.384       .  S
C2362      F2366   1.380       .  S
C2362      F2367   1.382       .  S
C2362      F2368   1.386       .  S
C2369      C2370   1.407       .  A
C2369      C2374   1.402       .  A
C2369      H2376   1.082       .  S
C2370      C4771   1.419       .  A
C2371      C4770   1.419       .  A
C2371      C2372   1.399       .  A
C2371      C2378   1.510       .  S
C2372      C4773   1.404       .  A
C2372      H2377   1.082       .  S
C2373      C4772   1.405       .  A
C2373      C2374   1.426       .  A
C2374      C2375   1.519       .  S
C2375      F4779   1.376   1_655  S
C2375      F4780   1.381       .  S
C2375      F2381   1.386       .  S
C2378      F2382   1.384       .  S
C2378      F4783   1.380       .  S
C2378      F4784   1.385       .  S
F2379      C4775   1.376       .  S
F2380      C4775   1.381       .  S
F2383      C4778   1.378       .  S
F2384      C4778   1.385       .  S
C2385      C2386   1.405       .  A
C2385      C2390   1.407       .  A
C2385      H2392   1.084       .  S
C2386      C4787   1.420   1_455  A
C2387      C4786   1.421       .  A
C2387      C2388   1.403       .  A
C2387      C2394   1.520       .  S
C2388      C4789   1.398       .  A
C2388      H2393   1.084       .  S
C2389      C4788   1.399   1_455  A
C2389      C2390   1.413       .  A
C2390      C2391   1.517       .  S
C2391      F2395   1.383       .  S
C2391      F2396   1.385       .  S
C2391      F2397   1.378       .  S
C2394      F2398   1.382       .  S
C2394      F2399   1.381       .  S
C2394      F2400   1.385       .  S
O2401     Zr2437   2.443       .  S
O2401      C2412   1.293       .  A
O2402     Zr2436   2.451   1_545  S
O2402      C2413   1.295       .  A
O2403     Zr2409   2.460       .  S
O2403      C2414   1.297   1_556  A
O2404      C2415   1.295       .  A
O2405     Zr2439   2.442   1_556  S
O2405      C2415   1.293       .  A
O2406     Zr2438   2.452   1_545  S
O2406      C2414   1.293       .  A
O2407     Zr3009   2.435       .  S
O2407      C2413   1.290       .  A
O2408     Zr2409   2.428   1_554  S
O2408      C2412   1.290       .  A
Zr2409     O3007   2.435       .  S
Zr2409     O2411   2.347   1_556  S
Zr2409     O3017   2.341       .  S
O2410     Zr3039   2.343       .  S
O2411     Zr2437   2.339       .  S
O2411     Zr2438   2.336   1_545  S
C2412      C2989   1.471       .  S
C2413      C2941   1.489       .  S
C2414      C2858   1.502       .  S
C2415      C2829   1.494       .  S
H2416      O2417   0.965       .  S
O2417     Zr3009   2.341       .  S
O2417     Zr2436   2.344   1_545  S
O2417     Zr3038   2.348   1_545  S
H2418      O2419   0.965       .  S
O2419     Zr2439   2.344       .  S
O2420     Zr3636   2.458       .  S
O2420      C2443   1.297       .  A
O2421     Zr3637   2.452       .  S
O2421      C2444   1.293       .  A
O2422     Zr3038   2.424       .  S
O2422      C2445   1.288       .  A
O2423     Zr3039   2.441       .  S
O2423      C2446   1.294       .  A
O2424     Zr2439   2.454       .  S
O2424      C2447   1.297       .  A
O2425     Zr2438   2.440       .  S
O2425      C2448   1.294       .  A
O2426     Zr2440   2.458       .  S
O2426      C2449   1.294       .  A
O2427      C2450   1.294       .  A
O2428     Zr3638   2.431       .  S
O2428      C2449   1.292       .  A
O2429     Zr3639   2.453       .  S
O2429      C2450   1.294       .  A
O2430     Zr2436   2.450       .  S
O2430      C2445   1.296       .  A
O2431     Zr2437   2.438   1_565  S
O2431      C2448   1.289       .  A
O2432      C2447   1.286       .  A
O2433      C2446   1.287       .  A
O2434     Zr3040   2.421       .  S
O2434      C2443   1.287       .  A
O2435     Zr2440   2.415       .  S
O2435      C2444   1.289       .  A
Zr2436     O3620   2.456       .  S
Zr2436     O3642   2.339       .  S
Zr2437     O3621   2.446   1_545  S
Zr2437     O3652   2.340   1_545  S
Zr2438     O3022   2.424   1_554  S
Zr2438     O3628   2.434       .  S
Zr2438     O3017   2.348   1_564  S
Zr2438     O4242   2.346   1_554  S
Zr2438     O3652   2.345       .  S
Zr2439     O3023   2.441   1_554  S
Zr2439     O3629   2.454   1_545  S
Zr2439     O3010   2.343   1_554  S
Zr2439     O3641   2.338   1_545  S
Zr2439     O4254   2.347   1_544  S
Zr2440     O3034   2.421   1_554  S
Zr2440     O3042   2.340   1_554  S
Zr2440     O2452   2.344       .  S
O2441     Zr3639   2.336       .  S
O2442     Zr3636   2.337       .  S
O2442     Zr4238   2.344       .  S
O2442     Zr3040   2.340       .  S
C2443      C2954   1.486       .  S
C2444      C2970   1.498       .  S
C2445      C2890   1.482       .  S
C2446      C2874   1.500       .  S
C2447      C2922   1.504       .  S
C2448      C2909   1.499       .  S
C2449      C2842   1.495       .  S
C2450      C2810   1.488       .  S
H2451      O2452   0.966       .  S
O2452     Zr3637   2.337       .  S
O2452     Zr3638   2.347       .  S
H2453      O2454   0.964       .  S
O2454     Zr4239   2.348       .  S
O2455     Zr2491   2.417       .  S
O2455      C2466   1.286       .  A
O2456     Zr2490   2.457       .  S
O2456      C2467   1.297       .  A
O2457     Zr2463   2.448       .  S
O2457      C2468   1.295       .  A
O2458      C2469   1.293       .  A
O2459     Zr2493   2.448       .  S
O2459      C2469   1.295       .  A
O2460     Zr2492   2.426       .  S
O2460      C2468   1.288       .  A
O2461     Zr2463   2.415       .  S
O2461      C2467   1.286       .  A
O2462     Zr2463   2.455       .  S
O2462      C2466   1.295       .  A
Zr2463     O2465   2.329       .  S
Zr2463     O2471   2.350       .  S
O2464     Zr2493   2.337       .  S
O2465     Zr2491   2.331       .  S
O2465     Zr2492   2.339       .  S
C2466      C2986   1.477       .  S
C2467      C2938   1.484       .  S
C2468      C2717   1.491       .  S
C2469      C2682   1.495       .  S
H2470      O2471   0.968       .  S
O2471     Zr2490   2.343       .  S
O2471     Zr2492   2.341       .  S
H2472      O2473   0.963       .  S
O2473     Zr2493   2.353       .  S
O2474     Zr2490   2.441       .  S
O2474      C2497   1.294       .  A
O2475     Zr2491   2.416       .  S
O2475      C2498   1.285       .  A
O2476     Zr2492   2.454       .  S
O2476      C2499   1.296       .  A
O2477     Zr2493   2.442       .  S
O2477      C2500   1.292       .  A
O2478     Zr2493   2.413       .  S
O2478      C2501   1.285       .  A
O2479     Zr2492   2.441       .  S
O2479      C2502   1.293       .  A
O2480     Zr2494   2.476       .  S
O2480      C2503   1.301       .  A
O2481      C2504   1.296       .  A
O2482     Zr2492   2.424       .  S
O2482      C2503   1.286       .  A
O2483     Zr2493   2.468       .  S
O2483      C2504   1.297       .  A
O2484     Zr2490   2.438       .  S
O2484      C2499   1.289       .  A
O2485     Zr2491   2.445       .  S
O2485      C2502   1.292       .  A
O2486      C2501   1.295       .  A
O2487      C2500   1.292       .  A
O2488     Zr2494   2.435       .  S
O2488      C2497   1.291       .  A
O2489     Zr2494   2.445       .  S
O2489      C2498   1.295       .  A
Zr2490     O2496   2.344       .  S
Zr2491     O2506   2.342       .  S
Zr2492     O2496   2.332       .  S
Zr2492     O2506   2.348       .  S
Zr2493     O2495   2.337       .  S
Zr2493     O2508   2.336       .  S
Zr2494     O2496   2.343       .  S
Zr2494     O2506   2.340       .  S
C2497      C2957   1.480       .  S
C2498      C2973   1.495       .  S
C2499      C2778   1.510       .  S
C2500      C2794   1.476       .  S
C2501      C2746   1.490       .  S
C2502      C2762   1.496       .  S
C2503      C2730   1.508       .  S
C2504      C2701   1.498       .  S
H2505      O2506   0.962       .  S
H2507      O2508   0.965       .  S
O2509     Zr2545   2.454       .  S
O2509      C2520   1.296       .  A
O2510     Zr2544   2.431       .  S
O2510      C2521   1.292       .  A
O2511     Zr2517   2.460       .  S
O2511      C2522   1.296       .  A
O2512     Zr3717   2.452       .  S
O2512      C2523   1.295       .  A
O2513     Zr2547   2.433       .  S
O2513      C2523   1.290       .  A
O2514     Zr2546   2.432       .  S
O2514      C2522   1.291       .  A
O2515     Zr2517   2.424       .  S
O2515      C2521   1.286       .  A
O2516     Zr2517   2.430       .  S
O2516      C2520   1.287       .  A
Zr2517     O3712   2.454       .  S
Zr2517     O3718   2.340       .  S
Zr2517     O2519   2.336       .  S
Zr2517     O3727   2.336       .  S
Zr2517     O2525   2.338       .  S
O2518     Zr3717   2.343       .  S
O2518     Zr3744   2.334       .  S
O2518     Zr2547   2.339       .  S
O2519     Zr2545   2.342       .  S
O2519     Zr2546   2.353       .  S
C2520      C4125   1.503       .  S
C2521      C4106   1.495       .  S
C2522      C2637   1.483       .  S
C2523      C2618   1.478       .  S
H2524      O2525   0.965       .  S
O2525     Zr2544   2.342       .  S
O2525     Zr2546   2.341       .  S
H2526      O2527   0.965       .  S
O2527     Zr3717   2.336       .  S
O2527     Zr3745   2.328       .  S
O2527     Zr2547   2.338       .  S
O2528     Zr2544   2.440       .  S
O2528      C2551   1.291       .  A
O2529     Zr2545   2.433       .  S
O2529      C2552   1.293       .  A
O2530     Zr2546   2.479       .  S
O2530      C2553   1.301       .  A
O2531     Zr2547   2.447       .  S
O2531      C2554   1.295       .  A
O2532     Zr2547   2.446       .  S
O2532      C2555   1.292       .  A
O2533     Zr2546   2.460       .  S
O2533      C2556   1.297       .  A
O2534     Zr2548   2.444       .  S
O2534      C2557   1.292       .  A
O2535     Zr3748   2.439       .  S
O2535      C2558   1.291       .  A
O2536     Zr2546   2.444       .  S
O2536      C2557   1.292       .  A
O2537     Zr2547   2.440       .  S
O2537      C2558   1.292       .  A
O2538     Zr2544   2.423       .  S
O2538      C2553   1.286       .  A
O2539     Zr2545   2.449       .  S
O2539      C2556   1.294       .  A
O2540     Zr3745   2.448       .  S
O2540      C2555   1.295       .  A
O2541     Zr3744   2.442       .  S
O2541      C2554   1.290       .  A
O2542     Zr2548   2.440       .  S
O2542      C2551   1.292       .  A
O2543     Zr2548   2.436       .  S
O2543      C2552   1.289       .  A
Zr2544     O3741   2.441       .  S
Zr2544     O3718   2.332       .  S
Zr2544     O2550   2.341       .  S
Zr2544     O3762   2.337       .  S
Zr2545     O3740   2.451       .  S
Zr2545     O3727   2.331       .  S
Zr2545     O3749   2.344       .  S
Zr2545     O2560   2.355       .  S
Zr2546     O2550   2.342       .  S
Zr2546     O2560   2.351       .  S
Zr2547     O2549   2.341       .  S
Zr2547     O2562   2.341       .  S
Zr2548     O3735   2.436       .  S
Zr2548     O3749   2.345       .  S
Zr2548     O2550   2.338       .  S
Zr2548     O3762   2.348       .  S
Zr2548     O2560   2.346       .  S
O2549     Zr3745   2.343       .  S
O2549     Zr3748   2.344       .  S
C2551      C4093   1.484       .  S
C2552      C4077   1.498       .  S
C2553      C2733   1.509       .  S
C2554      C2714   1.497       .  S
C2555      C2685   1.495       .  S
C2556      C2698   1.494       .  S
C2557      C2650   1.475       .  S
C2558      C2666   1.470       .  S
H2559      O2560   0.965       .  S
H2561      O2562   0.966       .  S
O2562     Zr3744   2.337       .  S
O2562     Zr3748   2.347       .  S
O2563     Zr2599   2.453       .  S
O2563      C2574   1.295       .  A
O2564     Zr2598   2.452       .  S
O2564      C2575   1.294       .  A
O2565     Zr3171   2.451       .  S
O2565      C2576   1.296       .  A
O2566     Zr2571   2.458       .  S
O2566      C2577   1.297       .  A
O2567     Zr2601   2.431       .  S
O2567      C2577   1.288       .  A
O2568     Zr2600   2.442       .  S
O2568      C2576   1.291       .  A
O2569     Zr2571   2.455       .  S
O2569      C2575   1.296       .  A
O2570     Zr2571   2.458       .  S
O2570      C2574   1.295       .  A
Zr2571     O3165   2.451       .  S
Zr2571     O2572   2.341       .  S
Zr2571     O3173   2.344       .  S
Zr2571     O2581   2.345       .  S
Zr2571     O3179   2.348       .  S
O2572     Zr2598   2.343       .  S
O2572     Zr2601   2.343       .  S
O2573     Zr3171   2.344       .  S
O2573     Zr3199   2.339   1_554  S
O2573     Zr2600   2.343       .  S
C2574      C3461   1.504       .  S
C2575      C3445   1.501       .  S
C2576      C2765   1.497       .  S
C2577      C2781   1.507       .  S
H2578      O2579   0.964       .  S
O2579     Zr3171   2.348       .  S
O2579     Zr3198   2.343       .  S
O2579     Zr2600   2.347       .  S
H2580      O2581   0.966       .  S
O2581     Zr2599   2.344       .  S
O2581     Zr2601   2.350       .  S
O2582     Zr2598   2.446       .  S
O2582      C2605   1.294       .  A
O2583     Zr2599   2.453       .  S
O2583      C2606   1.294       .  A
O2584     Zr2600   2.439       .  S
O2584      C2607   1.291       .  A
O2585     Zr2601   2.444       .  S
O2585      C2608   1.293       .  A
O2586     Zr2601   2.447       .  S
O2586      C2609   1.293       .  A
O2587     Zr2600   2.439       .  S
O2587      C2610   1.292       .  A
O2588     Zr3202   2.413   1_554  S
O2588      C2611   1.283       .  A
O2589     Zr2602   2.439       .  S
O2589      C2612   1.291       .  A
O2590     Zr2600   2.452       .  S
O2590      C2611   1.296       .  A
O2591     Zr2601   2.448       .  S
O2591      C2612   1.293       .  A
O2592     Zr3198   2.447       .  S
O2592      C2607   1.294       .  A
O2593     Zr3199   2.435   1_554  S
O2593      C2610   1.290       .  A
O2594     Zr2599   2.427       .  S
O2594      C2609   1.289       .  A
O2595     Zr2598   2.441       .  S
O2595      C2608   1.292       .  A
O2596     Zr2602   2.463       .  S
O2596      C2605   1.297       .  A
O2597     Zr2602   2.446       .  S
O2597      C2606   1.294       .  A
Zr2598     O3192   2.447       .  S
Zr2598     O3179   2.342       .  S
Zr2598     O3204   2.343       .  S
Zr2598     O2616   2.350       .  S
Zr2599     O3193   2.435       .  S
Zr2599     O3173   2.339       .  S
Zr2599     O2603   2.347       .  S
Zr2599     O3214   2.336       .  S
Zr2600     O2604   2.343       .  S
Zr2600     O2614   2.338       .  S
Zr2601     O2603   2.336       .  S
Zr2601     O2616   2.345       .  S
Zr2602     O3188   2.412       .  S
Zr2602     O2603   2.339       .  S
Zr2602     O3204   2.346       .  S
Zr2602     O2616   2.339       .  S
Zr2602     O3214   2.347       .  S
O2604     Zr3198   2.343       .  S
O2604     Zr3202   2.345   1_554  S
C2605      C3413   1.489       .  S
C2606      C3426   1.490       .  S
C2607      C2634   1.479       .  S
C2608      C2653   1.473       .  S
C2609      C2669   1.468       .  S
C2610      C2621   1.475       .  S
C2611      C2749   1.495       .  S
C2612      C2797   1.478       .  S
H2613      O2614   0.963       .  S
O2614     Zr3199   2.336   1_554  S
O2614     Zr3202   2.347   1_554  S
H2615      O2616   0.970       .  S
C2617      C2618   1.401       .  A
C2617      C2622   1.406       .  A
C2617      H2624   1.079       .  S
C2618      C2619   1.418       .  A
C2619      C2620   1.407       .  A
C2619      C2626   1.520       .  S
C2620      C2621   1.404       .  A
C2620      H2625   1.084       .  S
C2621      C2622   1.417       .  A
C2622      C2623   1.522       .  S
C2623      F2627   1.385       .  S
C2623      F2628   1.381       .  S
C2623      F2629   1.380       .  S
C2626      F2630   1.383       .  S
C2626      F2631   1.382       .  S
C2626      F2632   1.385       .  S
C2633      C2634   1.402       .  A
C2633      C2638   1.407       .  A
C2633      H2640   1.084       .  S
C2634      C2635   1.418       .  A
C2635      C2636   1.409       .  A
C2635      C2642   1.520       .  S
C2636      C2637   1.405       .  A
C2636      H2641   1.084       .  S
C2637      C2638   1.417       .  A
C2638      C2639   1.516       .  S
C2639      F2643   1.385       .  S
C2639      F2644   1.383       .  S
C2639      F2645   1.376       .  S
C2642      F2646   1.382       .  S
C2642      F2647   1.382       .  S
C2642      F2648   1.385       .  S
C2649      C2650   1.403       .  A
C2649      C2654   1.410       .  A
C2649      H2656   1.083       .  S
C2650      C2651   1.414       .  A
C2651      C2652   1.407       .  A
C2651      C2658   1.516       .  S
C2652      C2653   1.401       .  A
C2652      H2657   1.082       .  S
C2653      C2654   1.415       .  A
C2654      C2655   1.518       .  S
C2655      F2659   1.384       .  S
C2655      F2660   1.383       .  S
C2655      F2661   1.383       .  S
C2658      F2662   1.383       .  S
C2658      F2663   1.383       .  S
C2658      F2664   1.383       .  S
C2665      C2666   1.400       .  A
C2665      C2670   1.404       .  A
C2665      H2672   1.082       .  S
C2666      C2667   1.415       .  A
C2667      C2668   1.406       .  A
C2667      C2674   1.516       .  S
C2668      C2669   1.401       .  A
C2668      H2673   1.084       .  S
C2669      C2670   1.413       .  A
C2670      C2671   1.517       .  S
C2671      F2675   1.385       .  S
C2671      F2676   1.382       .  S
C2671      F2677   1.382       .  S
C2674      F2678   1.383       .  S
C2674      F2679   1.380       .  S
C2674      F2680   1.385       .  S
C2681      C2682   1.406       .  A
C2681      C2686   1.408       .  A
C2681      H2688   1.082       .  S
C2682      C2683   1.422       .  A
C2683      C2684   1.410       .  A
C2683      C2690   1.519       .  S
C2684      C2685   1.406       .  A
C2684      H2689   1.083       .  S
C2685      C2686   1.421       .  A
C2686      C2687   1.518       .  S
C2687      F2691   1.385       .  S
C2687      F2692   1.380       .  S
C2687      F2693   1.382       .  S
C2690      F2694   1.382       .  S
C2690      F2695   1.381       .  S
C2690      F2696   1.383       .  S
C2697      C2698   1.405       .  A
C2697      C2702   1.414       .  A
C2697      H2704   1.083       .  S
C2698      C2699   1.420       .  A
C2699      C2700   1.412       .  A
C2699      C2706   1.517       .  S
C2700      C2701   1.405       .  A
C2700      H2705   1.083       .  S
C2701      C2702   1.422       .  A
C2702      C2703   1.516       .  S
C2703      F2707   1.385       .  S
C2703      F2708   1.376       .  S
C2703      F2709   1.384       .  S
C2706      F2710   1.382       .  S
C2706      F2711   1.383       .  S
C2706      F2712   1.384       .  S
C2713      C2714   1.406       .  A
C2713      C2718   1.407       .  A
C2713      H2720   1.081       .  S
C2714      C2715   1.425       .  A
C2715      C2716   1.409       .  A
C2715      C2722   1.522       .  S
C2716      C2717   1.405       .  A
C2716      H2721   1.083       .  S
C2717      C2718   1.423       .  A
C2718      C2719   1.524       .  S
C2719      F2723   1.384       .  S
C2719      F2724   1.384       .  S
C2719      F2725   1.383       .  S
C2722      F2726   1.381       .  S
C2722      F2727   1.383       .  S
C2722      F2728   1.385       .  S
C2729      C2730   1.403       .  A
C2729      C2734   1.410       .  A
C2729      H2736   1.080       .  S
C2730      C2731   1.431       .  A
C2731      C2732   1.414       .  A
C2731      C2738   1.525       .  S
C2732      C2733   1.407       .  A
C2732      H2737   1.082       .  S
C2733      C2734   1.431       .  A
C2734      C2735   1.525       .  S
C2735      F2739   1.384       .  S
C2735      F2740   1.384       .  S
C2735      F2741   1.383       .  S
C2738      F2742   1.383       .  S
C2738      F2743   1.384       .  S
C2738      F2744   1.385       .  S
C2745      C2746   1.404       .  A
C2745      C2750   1.402       .  A
C2745      H2752   1.079       .  S
C2746      C2747   1.424       .  A
C2747      C2748   1.404       .  A
C2747      C2754   1.525       .  S
C2748      C2749   1.408       .  A
C2748      H2753   1.082       .  S
C2749      C2750   1.429       .  A
C2750      C2751   1.527       .  S
C2751      F2755   1.386       .  S
C2751      F2756   1.380       .  S
C2751      F2757   1.383       .  S
C2754      F2758   1.379       .  S
C2754      F2759   1.383       .  S
C2754      F2760   1.385       .  S
C2761      C2762   1.406       .  A
C2761      C2766   1.410       .  A
C2761      H2768   1.083       .  S
C2762      C2763   1.422       .  A
C2763      C2764   1.407       .  A
C2763      C2770   1.517       .  S
C2764      C2765   1.405       .  A
C2764      H2769   1.082       .  S
C2765      C2766   1.424       .  A
C2766      C2767   1.520       .  S
C2767      F2771   1.385       .  S
C2767      F2772   1.382       .  S
C2767      F2773   1.379       .  S
C2770      F2774   1.384       .  S
C2770      F2775   1.383       .  S
C2770      F2776   1.385       .  S
C2777      C2778   1.409       .  A
C2777      C2782   1.410       .  A
C2777      H2784   1.081       .  S
C2778      C2779   1.429       .  A
C2779      C2780   1.411       .  A
C2779      C2786   1.524       .  S
C2780      C2781   1.408       .  A
C2780      H2785   1.081       .  S
C2781      C2782   1.429       .  A
C2782      C2783   1.525       .  S
C2783      F2787   1.385       .  S
C2783      F2788   1.384       .  S
C2783      F2789   1.383       .  S
C2786      F2790   1.383       .  S
C2786      F2791   1.383       .  S
C2786      F2792   1.385       .  S
C2793      C2794   1.400       .  A
C2793      C2798   1.407       .  A
C2793      H2800   1.083       .  S
C2794      C2795   1.416       .  A
C2795      C2796   1.409       .  A
C2795      C2802   1.517       .  S
C2796      C2797   1.404       .  A
C2796      H2801   1.083       .  S
C2797      C2798   1.415       .  A
C2798      C2799   1.515       .  S
C2799      F2803   1.384       .  S
C2799      F2804   1.384       .  S
C2799      F2805   1.382       .  S
C2802      F2806   1.382       .  S
C2802      F2807   1.383       .  S
C2802      F2808   1.384       .  S
C2809      C2810   1.404       .  A
C2809      C2814   1.409       .  A
C2809      H2816   1.085       .  S
C2810      C3411   1.418   1_554  A
C2811      C3410   1.418       .  A
C2811      C2812   1.411       .  A
C2811      C2818   1.520       .  S
C2812      C3413   1.406       .  A
C2812      H2817   1.084       .  S
C2813      C3205   1.489       .  S
C2813      C3412   1.406   1_554  A
C2813      C2814   1.423       .  A
C2814      C2815   1.518       .  S
C2815      F3419   1.384       .  S
C2815      F3420   1.381       .  S
C2815      F2821   1.381       .  S
C2818      F2822   1.382       .  S
C2818      F3423   1.382       .  S
C2818      F3424   1.385       .  S
F2819      C3415   1.384       .  S
F2820      C3415   1.381       .  S
F2823      C3418   1.382       .  S
F2824      C3418   1.385       .  S
C2825      C2826   1.406       .  A
C2825      C2830   1.412       .  A
C2825      H2832   1.083       .  S
C2826      C3206   1.490       .  S
C2826      C3427   1.419   1_556  A
C2827      C3426   1.419       .  A
C2827      C2828   1.411       .  A
C2827      C2834   1.521       .  S
C2828      C3429   1.408       .  A
C2828      H2833   1.084       .  S
C2829      C3428   1.408   1_556  A
C2829      C2830   1.421       .  A
C2830      C2831   1.519       .  S
C2831      F3435   1.383       .  S
C2831      F3436   1.383       .  S
C2831      F2837   1.382       .  S
C2834      F2838   1.383       .  S
C2834      F3439   1.384       .  S
C2834      F3440   1.385       .  S
F2835      C3431   1.383       .  S
F2836      C3431   1.383       .  S
F2839      C3434   1.384       .  S
F2840      C3434   1.384       .  S
C2841      C2842   1.406       .  A
C2841      C2846   1.408       .  A
C2841      H2848   1.083       .  S
C2842      C3443   1.420   1_554  A
C2843      C3442   1.420       .  A
C2843      C2844   1.413       .  A
C2843      C2850   1.520       .  S
C2844      C3445   1.410       .  A
C2844      H2849   1.083       .  S
C2845      C3175   1.501       .  S
C2845      C3444   1.410   1_554  A
C2845      C2846   1.425       .  A
C2846      C2847   1.521       .  S
C2847      F3451   1.386       .  S
C2847      F3452   1.383       .  S
C2847      F2853   1.381       .  S
C2850      F2854   1.384       .  S
C2850      F3455   1.383       .  S
C2850      F3456   1.384       .  S
F2851      C3447   1.386       .  S
F2852      C3447   1.383       .  S
F2855      C3450   1.383       .  S
F2856      C3450   1.384       .  S
C2857      C2858   1.406       .  A
C2857      C2862   1.411       .  A
C2857      H2864   1.083       .  S
C2858      C3459   1.425   1_554  A
C2859      C3458   1.425       .  A
C2859      C2860   1.415       .  A
C2859      C2866   1.522       .  S
C2860      C3461   1.409       .  A
C2860      H2865   1.083       .  S
C2861      C3174   1.504       .  S
C2861      C3460   1.409   1_554  A
C2861      C2862   1.423       .  A
C2862      C2863   1.520       .  S
C2863      F2867   1.385       .  S
C2863      F3468   1.383       .  S
C2863      F2869   1.382       .  S
C2866      F2870   1.383       .  S
C2866      F3471   1.383       .  S
C2866      F2872   1.385       .  S
F2868      C3463   1.383       .  S
F2871      C3466   1.383       .  S
C2873      C2874   1.410       .  A
C2873      C2878   1.406       .  A
C2873      H2880   1.081       .  S
C2874      C4075   1.427   1_545  A
C2875      C4074   1.425       .  A
C2875      C2876   1.405       .  A
C2875      C2882   1.525       .  S
C2876      C4077   1.407       .  A
C2876      H2881   1.079       .  S
C2877      C3752   1.498       .  S
C2877      C4076   1.408   1_545  A
C2877      C2878   1.424       .  A
C2878      C2879   1.524       .  S
C2879      F2883   1.385       .  S
C2879      F4084   1.383   1_545  S
C2879      F2885   1.383       .  S
C2882      F2886   1.384       .  S
C2882      F4087   1.383       .  S
C2882      F2888   1.384       .  S
F2884      C4079   1.383       .  S
F2887      C4082   1.383   1_545  S
C2889      C2890   1.403   1_545  A
C2889      C2894   1.405       .  A
C2889      H2896   1.083       .  S
C2890      C4091   1.421       .  A
C2891      C4090   1.420       .  A
C2891      C2892   1.410       .  A
C2891      C2898   1.522       .  S
C2892      C4093   1.407       .  A
C2892      H2897   1.084       .  S
C2893      C3751   1.485       .  S
C2893      C4092   1.406       .  A
C2893      C2894   1.420   1_565  A
C2894      C2895   1.521       .  S
C2895      F2899   1.385       .  S
C2895      F4100   1.382       .  S
C2895      F2901   1.382       .  S
C2898      F2902   1.384       .  S
C2898      F4103   1.382       .  S
C2898      F2904   1.385       .  S
F2900      C4095   1.382       .  S
F2903      C4098   1.382       .  S
C2905      C2906   1.407       .  A
C2905      C2910   1.405       .  A
C2905      H2912   1.081       .  S
C2906      C3721   1.494       .  S
C2906      C4107   1.425   1_565  A
C2907      C4106   1.425       .  A
C2907      C2908   1.407       .  A
C2907      C2914   1.525       .  S
C2908      C4109   1.409       .  A
C2908      H2913   1.081       .  S
C2909      C4108   1.409   1_565  A
C2909      C2910   1.426       .  A
C2910      C2911   1.523       .  S
C2911      F4115   1.386       .  S
C2911      F4116   1.383       .  S
C2911      F2917   1.381       .  S
C2914      F2918   1.384       .  S
C2914      F4119   1.379       .  S
C2914      F4120   1.384       .  S
F2915      C4111   1.385       .  S
F2916      C4111   1.383       .  S
F2919      C4114   1.379       .  S
F2920      C4114   1.384       .  S
C2921      C4122   1.407       .  A
C2921      C2926   1.407       .  A
C2921      H2928   1.082       .  S
C2922      C4121   1.407       .  A
C2922      C2923   1.429       .  A
C2923      C2924   1.411       .  A
C2923      C2930   1.528       .  S
C2924      C2925   1.409       .  A
C2924      H2929   1.082       .  S
C2925      C3720   1.504       .  S
C2925      C4126   1.427       .  A
C2926      C4125   1.427       .  A
C2926      C2927   1.525       .  S
C2927      F4131   1.385       .  S
C2927      F4132   1.383       .  S
C2927      F2933   1.379       .  S
C2930      F2934   1.384       .  S
C2930      F4135   1.374       .  S
C2930      F4136   1.383       .  S
F2931      C4127   1.385       .  S
F2932      C4127   1.383       .  S
F2935      C4130   1.373       .  S
F2936      C4130   1.383       .  S
C2937      C2938   1.400       .  A
C2937      C2942   1.404       .  A
C2937      H2944   1.083       .  S
C2939      C2940   1.410       .  A
C2939      C2946   1.524       .  S
C2940      H2945   1.082       .  S
C2941      C2942   1.422       .  A
C2942      C2943   1.520       .  S
C2943      F2947   1.385       .  S
C2943      F2948   1.384       .  S
C2943      F2949   1.382       .  S
C2946      F2950   1.383       .  S
C2946      F2951   1.383       .  S
C2946      F2952   1.384       .  S
C2953      C2954   1.404       .  A
C2953      C2958   1.404       .  A
C2953      H2960   1.083       .  S
C2955      C2956   1.407       .  A
C2955      C2962   1.521       .  S
C2956      H2961   1.083       .  S
C2957      C2958   1.417       .  A
C2958      C2959   1.518       .  S
C2959      F2963   1.385       .  S
C2959      F2964   1.382       .  S
C2959      F2965   1.384       .  S
C2962      F2966   1.380       .  S
C2962      F2967   1.382       .  S
C2962      F2968   1.386       .  S
C2969      C2970   1.408       .  A
C2969      C2974   1.405       .  A
C2969      H2976   1.082       .  S
C2971      C2972   1.399       .  A
C2971      C2978   1.509       .  S
C2972      H2977   1.082       .  S
C2973      C2974   1.426       .  A
C2974      C2975   1.520       .  S
C2975      F2981   1.385       .  S
C2978      F2982   1.384       .  S
C2985      C2986   1.404       .  A
C2985      C2990   1.407       .  A
C2985      H2992   1.084       .  S
C2987      C2988   1.402       .  A
C2987      C2994   1.520       .  S
C2988      H2993   1.084       .  S
C2989      C2990   1.413       .  A
C2990      C2991   1.517       .  S
C2991      F2995   1.383       .  S
C2991      F2996   1.385       .  S
C2991      F2997   1.379       .  S
C2994      F2998   1.382       .  S
C2994      F2999   1.382       .  S
C2994      F3000   1.385       .  S
O3001     Zr3037   2.443       .  S
O3001      C3012   1.293       .  A
O3002     Zr3036   2.451   1_545  S
O3002      C3013   1.295       .  A
O3003     Zr3009   2.460       .  S
O3003      C3014   1.297       .  A
O3004      C3015   1.295       .  A
O3005     Zr3039   2.441       .  S
O3005      C3015   1.293       .  A
O3006     Zr3038   2.452   1_545  S
O3006      C3014   1.293       .  A
O3007      C3013   1.290       .  A
O3008     Zr3009   2.427       .  S
O3008      C3012   1.290       .  A
Zr3009     O3011   2.347       .  S
O3011     Zr3037   2.339       .  S
O3011     Zr3038   2.336   1_545  S
C3012      C3589   1.471       .  S
C3013      C3541   1.489       .  S
C3014      C3458   1.502       .  S
C3015      C3429   1.494       .  S
H3016      O3017   0.965       .  S
O3017     Zr3036   2.345   1_545  S
H3018      O3019   0.965       .  S
O3019     Zr3039   2.344       .  S
O3020     Zr4236   2.459       .  S
O3020      C3043   1.297       .  A
O3021     Zr4237   2.452       .  S
O3021      C3044   1.293       .  A
O3022      C3045   1.288       .  A
O3023      C3046   1.294       .  A
O3024     Zr3039   2.455       .  S
O3024      C3047   1.297       .  A
O3025     Zr3038   2.440       .  S
O3025      C3048   1.294       .  A
O3026     Zr3040   2.458       .  S
O3026      C3049   1.294       .  A
O3027      C3050   1.294       .  A
O3028     Zr4238   2.431       .  S
O3028      C3049   1.292       .  A
O3029     Zr4239   2.454       .  S
O3029      C3050   1.294       .  A
O3030     Zr3036   2.450       .  S
O3030      C3045   1.295       .  A
O3031     Zr3037   2.438   1_565  S
O3031      C3048   1.289       .  A
O3032      C3047   1.286       .  A
O3033      C3046   1.287       .  A
O3034      C3043   1.287       .  A
O3035     Zr3040   2.415       .  S
O3035      C3044   1.289       .  A
Zr3036     O4220   2.456       .  S
Zr3036     O4242   2.339       .  S
Zr3037     O4221   2.446   1_545  S
Zr3037     O4252   2.340   1_545  S
Zr3038     O4228   2.434       .  S
Zr3038     O3642   2.346       .  S
Zr3038     O4252   2.345       .  S
Zr3039     O4229   2.454   1_545  S
Zr3039     O4241   2.338   1_545  S
Zr3039     O3654   2.347   1_545  S
Zr3040     O3052   2.345       .  S
O3041     Zr4239   2.336       .  S
O3042     Zr4236   2.337       .  S
O3042     Zr3638   2.344   1_556  S
C3043      C3554   1.486       .  S
C3044      C3570   1.498       .  S
C3045      C3490   1.482       .  S
C3046      C3474   1.500       .  S
C3047      C3522   1.504       .  S
C3048      C3509   1.499       .  S
C3049      C3442   1.495       .  S
C3050      C3410   1.488       .  S
H3051      O3052   0.966       .  S
O3052     Zr4237   2.337       .  S
O3052     Zr4238   2.347       .  S
H3053      O3054   0.964       .  S
O3054     Zr3639   2.348   1_556  S
O3055     Zr3091   2.417       .  S
O3055      C3066   1.286       .  A
O3056     Zr3090   2.457       .  S
O3056      C3067   1.297       .  A
O3057     Zr3063   2.448       .  S
O3057      C3068   1.295       .  A
O3058      C3069   1.293       .  A
O3059     Zr3093   2.448       .  S
O3059      C3069   1.295       .  A
O3060     Zr3092   2.426       .  S
O3060      C3068   1.288       .  A
O3061     Zr3063   2.415       .  S
O3061      C3067   1.286       .  A
O3062     Zr3063   2.455       .  S
O3062      C3066   1.295       .  A
Zr3063     O3065   2.329       .  S
Zr3063     O3071   2.350       .  S
O3064     Zr3093   2.337       .  S
O3065     Zr3091   2.331       .  S
O3065     Zr3092   2.339       .  S
C3066      C3586   1.477       .  S
C3067      C3538   1.484       .  S
C3068      C3317   1.491       .  S
C3069      C3282   1.495       .  S
H3070      O3071   0.968       .  S
O3071     Zr3090   2.343       .  S
O3071     Zr3092   2.342       .  S
H3072      O3073   0.963       .  S
O3073     Zr3093   2.353       .  S
O3074     Zr3090   2.440       .  S
O3074      C3097   1.294       .  A
O3075     Zr3091   2.416       .  S
O3075      C3098   1.285       .  A
O3076     Zr3092   2.454       .  S
O3076      C3099   1.296       .  A
O3077     Zr3093   2.442       .  S
O3077      C3100   1.292       .  A
O3078     Zr3093   2.412       .  S
O3078      C3101   1.285       .  A
O3079     Zr3092   2.441       .  S
O3079      C3102   1.293       .  A
O3080     Zr3094   2.476       .  S
O3080      C3103   1.301       .  A
O3081      C3104   1.296       .  A
O3082     Zr3092   2.424       .  S
O3082      C3103   1.286       .  A
O3083     Zr3093   2.468       .  S
O3083      C3104   1.297       .  A
O3084     Zr3090   2.438       .  S
O3084      C3099   1.289       .  A
O3085     Zr3091   2.444       .  S
O3085      C3102   1.292       .  A
O3086      C3101   1.295       .  A
O3087      C3100   1.292       .  A
O3088     Zr3094   2.435       .  S
O3088      C3097   1.291       .  A
O3089     Zr3094   2.445       .  S
O3089      C3098   1.295       .  A
Zr3090     O3096   2.344       .  S
Zr3091     O3106   2.342       .  S
Zr3092     O3096   2.332       .  S
Zr3092     O3106   2.348       .  S
Zr3093     O3095   2.337       .  S
Zr3093     O3108   2.336       .  S
Zr3094     O3096   2.343       .  S
Zr3094     O3106   2.341       .  S
C3097      C3557   1.480       .  S
C3098      C3573   1.495       .  S
C3099      C3378   1.510       .  S
C3100      C3394   1.476       .  S
C3101      C3346   1.490       .  S
C3102      C3362   1.497       .  S
C3103      C3330   1.508       .  S
C3104      C3301   1.498       .  S
H3105      O3106   0.962       .  S
H3107      O3108   0.965       .  S
O3109     Zr3145   2.454       .  S
O3109      C3120   1.296       .  A
O3110     Zr3144   2.431       .  S
O3110      C3121   1.292       .  A
O3111     Zr3117   2.460       .  S
O3111      C3122   1.296       .  A
O3112     Zr4317   2.452       .  S
O3112      C3123   1.295       .  A
O3113     Zr3147   2.433       .  S
O3113      C3123   1.290       .  A
O3114     Zr3146   2.432       .  S
O3114      C3122   1.291       .  A
O3115     Zr3117   2.424       .  S
O3115      C3121   1.286       .  A
O3116     Zr3117   2.431       .  S
O3116      C3120   1.287       .  A
Zr3117     O4312   2.454       .  S
Zr3117     O4318   2.341       .  S
Zr3117     O3119   2.336       .  S
Zr3117     O4327   2.336       .  S
Zr3117     O3125   2.339       .  S
O3118     Zr4317   2.343       .  S
O3118     Zr4344   2.334       .  S
O3118     Zr3147   2.340       .  S
O3119     Zr3145   2.342       .  S
O3119     Zr3146   2.353       .  S
C3120      C4725   1.503       .  S
C3121      C4706   1.495       .  S
C3122      C3237   1.483       .  S
C3123      C3218   1.478       .  S
H3124      O3125   0.965       .  S
O3125     Zr3144   2.342       .  S
O3125     Zr3146   2.341       .  S
H3126      O3127   0.965       .  S
O3127     Zr4317   2.336       .  S
O3127     Zr4345   2.328       .  S
O3127     Zr3147   2.338       .  S
O3128     Zr3144   2.440       .  S
O3128      C3151   1.291       .  A
O3129     Zr3145   2.434       .  S
O3129      C3152   1.293       .  A
O3130     Zr3146   2.479       .  S
O3130      C3153   1.301       .  A
O3131     Zr3147   2.447       .  S
O3131      C3154   1.295       .  A
O3132     Zr3147   2.446       .  S
O3132      C3155   1.292       .  A
O3133     Zr3146   2.460       .  S
O3133      C3156   1.297       .  A
O3134     Zr3148   2.444       .  S
O3134      C3157   1.292       .  A
O3135     Zr4348   2.438       .  S
O3135      C3158   1.291       .  A
O3136     Zr3146   2.444       .  S
O3136      C3157   1.292       .  A
O3137     Zr3147   2.440       .  S
O3137      C3158   1.292       .  A
O3138     Zr3144   2.423       .  S
O3138      C3153   1.286       .  A
O3139     Zr3145   2.449       .  S
O3139      C3156   1.294       .  A
O3140     Zr4345   2.449       .  S
O3140      C3155   1.295       .  A
O3141     Zr4344   2.442       .  S
O3141      C3154   1.290       .  A
O3142     Zr3148   2.440       .  S
O3142      C3151   1.292       .  A
O3143     Zr3148   2.436       .  S
O3143      C3152   1.289       .  A
Zr3144     O4341   2.441       .  S
Zr3144     O4318   2.332       .  S
Zr3144     O3150   2.341       .  S
Zr3144     O4362   2.336       .  S
Zr3145     O4340   2.451       .  S
Zr3145     O4327   2.331       .  S
Zr3145     O4349   2.344       .  S
Zr3145     O3160   2.355       .  S
Zr3146     O3150   2.342       .  S
Zr3146     O3160   2.351       .  S
Zr3147     O3149   2.341       .  S
Zr3147     O3162   2.341       .  S
Zr3148     O4335   2.435       .  S
Zr3148     O4349   2.345       .  S
Zr3148     O3150   2.338       .  S
Zr3148     O4362   2.348       .  S
Zr3148     O3160   2.346       .  S
O3149     Zr4345   2.344       .  S
O3149     Zr4348   2.344       .  S
C3151      C4693   1.484       .  S
C3152      C4677   1.498       .  S
C3153      C3333   1.509       .  S
C3154      C3314   1.497       .  S
C3155      C3285   1.495       .  S
C3156      C3298   1.494       .  S
C3157      C3250   1.475       .  S
C3158      C3266   1.469       .  S
H3159      O3160   0.965       .  S
H3161      O3162   0.966       .  S
O3162     Zr4344   2.337       .  S
O3162     Zr4348   2.347       .  S
O3163     Zr3199   2.453   1_554  S
O3163      C3174   1.295       .  A
O3164     Zr3198   2.452       .  S
O3164      C3175   1.294       .  A
O3165      C3176   1.296       .  A
O3166     Zr3171   2.458   1_556  S
O3166      C3177   1.298       .  A
O3167     Zr3201   2.431       .  S
O3167      C3177   1.288       .  A
O3168     Zr3200   2.442       .  S
O3168      C3176   1.291       .  A
O3169     Zr3171   2.455       .  S
O3169      C3175   1.296       .  A
O3170     Zr3171   2.457       .  S
O3170      C3174   1.295       .  A
Zr3171     O3172   2.341   1_554  S
Zr3171     O3181   2.345   1_554  S
O3172     Zr3198   2.343   1_556  S
O3172     Zr3201   2.343       .  S
O3173     Zr3200   2.343       .  S
C3176      C3365   1.496       .  S
C3177      C3381   1.507       .  S
H3178      O3179   0.964       .  S
O3179     Zr3200   2.347       .  S
H3180      O3181   0.966       .  S
O3181     Zr3199   2.344       .  S
O3181     Zr3201   2.350       .  S
O3182     Zr3198   2.446       .  S
O3182      C3205   1.294       .  A
O3183     Zr3199   2.453       .  S
O3183      C3206   1.294       .  A
O3184     Zr3200   2.439       .  S
O3184      C3207   1.291       .  A
O3185     Zr3201   2.444       .  S
O3185      C3208   1.293       .  A
O3186     Zr3201   2.447       .  S
O3186      C3209   1.293       .  A
O3187     Zr3200   2.439       .  S
O3187      C3210   1.292       .  A
O3188      C3211   1.283       .  A
O3189     Zr3202   2.439       .  S
O3189      C3212   1.291       .  A
O3190     Zr3200   2.452       .  S
O3190      C3211   1.296       .  A
O3191     Zr3201   2.448       .  S
O3191      C3212   1.293       .  A
O3192      C3207   1.294       .  A
O3193      C3210   1.290       .  A
O3194     Zr3199   2.427       .  S
O3194      C3209   1.289       .  A
O3195     Zr3198   2.441   1_556  S
O3195      C3208   1.292       .  A
O3196     Zr3202   2.462   1_554  S
O3196      C3205   1.296       .  A
O3197     Zr3202   2.446       .  S
O3197      C3206   1.294       .  A
Zr3198     O3216   2.350   1_554  S
Zr3199     O3203   2.347       .  S
Zr3200     O3204   2.343       .  S
Zr3200     O3214   2.338       .  S
Zr3201     O3203   2.337       .  S
Zr3201     O3216   2.345       .  S
Zr3202     O3203   2.339       .  S
Zr3202     O3216   2.339       .  S
C3207      C3234   1.479       .  S
C3208      C3253   1.474       .  S
C3209      C3269   1.468       .  S
C3210      C3221   1.475       .  S
C3211      C3349   1.495       .  S
C3212      C3397   1.478       .  S
H3213      O3214   0.963       .  S
H3215      O3216   0.970       .  S
C3217      C3218   1.401       .  A
C3217      C3222   1.406       .  A
C3217      H3224   1.079       .  S
C3218      C3219   1.418       .  A
C3219      C3220   1.407       .  A
C3219      C3226   1.520       .  S
C3220      C3221   1.404       .  A
C3220      H3225   1.084       .  S
C3221      C3222   1.417       .  A
C3222      C3223   1.522       .  S
C3223      F3227   1.385       .  S
C3223      F3228   1.381       .  S
C3223      F3229   1.380       .  S
C3226      F3230   1.383       .  S
C3226      F3231   1.382       .  S
C3226      F3232   1.385       .  S
C3233      C3234   1.402       .  A
C3233      C3238   1.407       .  A
C3233      H3240   1.084       .  S
C3234      C3235   1.418       .  A
C3235      C3236   1.409       .  A
C3235      C3242   1.520       .  S
C3236      C3237   1.405       .  A
C3236      H3241   1.084       .  S
C3237      C3238   1.417       .  A
C3238      C3239   1.516       .  S
C3239      F3243   1.385       .  S
C3239      F3244   1.383       .  S
C3239      F3245   1.376       .  S
C3242      F3246   1.382       .  S
C3242      F3247   1.382       .  S
C3242      F3248   1.385       .  S
C3249      C3250   1.403       .  A
C3249      C3254   1.410       .  A
C3249      H3256   1.083       .  S
C3250      C3251   1.414       .  A
C3251      C3252   1.407       .  A
C3251      C3258   1.516       .  S
C3252      C3253   1.401       .  A
C3252      H3257   1.082       .  S
C3253      C3254   1.415       .  A
C3254      C3255   1.518       .  S
C3255      F3259   1.384       .  S
C3255      F3260   1.383       .  S
C3255      F3261   1.383       .  S
C3258      F3262   1.383       .  S
C3258      F3263   1.383       .  S
C3258      F3264   1.383       .  S
C3265      C3266   1.400       .  A
C3265      C3270   1.404       .  A
C3265      H3272   1.082       .  S
C3266      C3267   1.415       .  A
C3267      C3268   1.406       .  A
C3267      C3274   1.516       .  S
C3268      C3269   1.401       .  A
C3268      H3273   1.084       .  S
C3269      C3270   1.413       .  A
C3270      C3271   1.517       .  S
C3271      F3275   1.385       .  S
C3271      F3276   1.382       .  S
C3271      F3277   1.382       .  S
C3274      F3278   1.383       .  S
C3274      F3279   1.380       .  S
C3274      F3280   1.385       .  S
C3281      C3282   1.406       .  A
C3281      C3286   1.408       .  A
C3281      H3288   1.082       .  S
C3282      C3283   1.422       .  A
C3283      C3284   1.410       .  A
C3283      C3290   1.519       .  S
C3284      C3285   1.406       .  A
C3284      H3289   1.083       .  S
C3285      C3286   1.421       .  A
C3286      C3287   1.518       .  S
C3287      F3291   1.385       .  S
C3287      F3292   1.380       .  S
C3287      F3293   1.382       .  S
C3290      F3294   1.382       .  S
C3290      F3295   1.381       .  S
C3290      F3296   1.383       .  S
C3297      C3298   1.405       .  A
C3297      C3302   1.413       .  A
C3297      H3304   1.083       .  S
C3298      C3299   1.420       .  A
C3299      C3300   1.412       .  A
C3299      C3306   1.517       .  S
C3300      C3301   1.405       .  A
C3300      H3305   1.083       .  S
C3301      C3302   1.422       .  A
C3302      C3303   1.516       .  S
C3303      F3307   1.385       .  S
C3303      F3308   1.376       .  S
C3303      F3309   1.384       .  S
C3306      F3310   1.382       .  S
C3306      F3311   1.383       .  S
C3306      F3312   1.384       .  S
C3313      C3314   1.406       .  A
C3313      C3318   1.407       .  A
C3313      H3320   1.081       .  S
C3314      C3315   1.425       .  A
C3315      C3316   1.409       .  A
C3315      C3322   1.522       .  S
C3316      C3317   1.405       .  A
C3316      H3321   1.083       .  S
C3317      C3318   1.423       .  A
C3318      C3319   1.523       .  S
C3319      F3323   1.384       .  S
C3319      F3324   1.384       .  S
C3319      F3325   1.383       .  S
C3322      F3326   1.381       .  S
C3322      F3327   1.383       .  S
C3322      F3328   1.385       .  S
C3329      C3330   1.403       .  A
C3329      C3334   1.410       .  A
C3329      H3336   1.080       .  S
C3330      C3331   1.431       .  A
C3331      C3332   1.414       .  A
C3331      C3338   1.525       .  S
C3332      C3333   1.407       .  A
C3332      H3337   1.082       .  S
C3333      C3334   1.431       .  A
C3334      C3335   1.525       .  S
C3335      F3339   1.384       .  S
C3335      F3340   1.384       .  S
C3335      F3341   1.383       .  S
C3338      F3342   1.383       .  S
C3338      F3343   1.384       .  S
C3338      F3344   1.385       .  S
C3345      C3346   1.404       .  A
C3345      C3350   1.402       .  A
C3345      H3352   1.079       .  S
C3346      C3347   1.424       .  A
C3347      C3348   1.404       .  A
C3347      C3354   1.525       .  S
C3348      C3349   1.408       .  A
C3348      H3353   1.082       .  S
C3349      C3350   1.429       .  A
C3350      C3351   1.527       .  S
C3351      F3355   1.386       .  S
C3351      F3356   1.380       .  S
C3351      F3357   1.383       .  S
C3354      F3358   1.379       .  S
C3354      F3359   1.383       .  S
C3354      F3360   1.385       .  S
C3361      C3362   1.406       .  A
C3361      C3366   1.410       .  A
C3361      H3368   1.083       .  S
C3362      C3363   1.422       .  A
C3363      C3364   1.407       .  A
C3363      C3370   1.517       .  S
C3364      C3365   1.405       .  A
C3364      H3369   1.083       .  S
C3365      C3366   1.424       .  A
C3366      C3367   1.520       .  S
C3367      F3371   1.385       .  S
C3367      F3372   1.382       .  S
C3367      F3373   1.379       .  S
C3370      F3374   1.384       .  S
C3370      F3375   1.383       .  S
C3370      F3376   1.385       .  S
C3377      C3378   1.409       .  A
C3377      C3382   1.410       .  A
C3377      H3384   1.081       .  S
C3378      C3379   1.429       .  A
C3379      C3380   1.411       .  A
C3379      C3386   1.524       .  S
C3380      C3381   1.408       .  A
C3380      H3385   1.081       .  S
C3381      C3382   1.429       .  A
C3382      C3383   1.525       .  S
C3383      F3387   1.385       .  S
C3383      F3388   1.384       .  S
C3383      F3389   1.383       .  S
C3386      F3390   1.383       .  S
C3386      F3391   1.383       .  S
C3386      F3392   1.385       .  S
C3393      C3394   1.400       .  A
C3393      C3398   1.407       .  A
C3393      H3400   1.083       .  S
C3394      C3395   1.415       .  A
C3395      C3396   1.409       .  A
C3395      C3402   1.517       .  S
C3396      C3397   1.404       .  A
C3396      H3401   1.083       .  S
C3397      C3398   1.415       .  A
C3398      C3399   1.515       .  S
C3399      F3403   1.384       .  S
C3399      F3404   1.384       .  S
C3399      F3405   1.382       .  S
C3402      F3406   1.382       .  S
C3402      F3407   1.383       .  S
C3402      F3408   1.384       .  S
C3409      C3410   1.404       .  A
C3409      C3414   1.409       .  A
C3409      H3416   1.085       .  S
C3411      C3412   1.411       .  A
C3411      C3418   1.520       .  S
C3412      H3417   1.084       .  S
C3413      C3414   1.423       .  A
C3414      C3415   1.518       .  S
C3415      F3421   1.381       .  S
C3418      F3422   1.382       .  S
C3425      C3426   1.406       .  A
C3425      C3430   1.412       .  A
C3425      H3432   1.083       .  S
C3427      C3428   1.411       .  A
C3427      C3434   1.521       .  S
C3428      H3433   1.084       .  S
C3429      C3430   1.421       .  A
C3430      C3431   1.519       .  S
C3431      F3437   1.382       .  S
C3434      F3438   1.383       .  S
C3441      C3442   1.406       .  A
C3441      C3446   1.408       .  A
C3441      H3448   1.083       .  S
C3443      C3444   1.412       .  A
C3443      C3450   1.520       .  S
C3444      H3449   1.083       .  S
C3445      C3446   1.425       .  A
C3446      C3447   1.521       .  S
C3447      F3453   1.381       .  S
C3450      F3454   1.384       .  S
C3457      C3458   1.406       .  A
C3457      C3462   1.411       .  A
C3457      H3464   1.083       .  S
C3459      C3460   1.415       .  A
C3459      C3466   1.522       .  S
C3460      H3465   1.083       .  S
C3461      C3462   1.424       .  A
C3462      C3463   1.520       .  S
C3463      F3467   1.385       .  S
C3463      F3469   1.382       .  S
C3466      F3470   1.383       .  S
C3466      F3472   1.385       .  S
C3473      C3474   1.409       .  A
C3473      C3478   1.406       .  A
C3473      H3480   1.081       .  S
C3474      C4675   1.427   1_545  A
C3475      C4674   1.425       .  A
C3475      C3476   1.405       .  A
C3475      C3482   1.525       .  S
C3476      C4677   1.407       .  A
C3476      H3481   1.079       .  S
C3477      C4352   1.498       .  S
C3477      C4676   1.408   1_545  A
C3477      C3478   1.424       .  A
C3478      C3479   1.524       .  S
C3479      F3483   1.385       .  S
C3479      F4684   1.383   1_545  S
C3479      F3485   1.383       .  S
C3482      F3486   1.384       .  S
C3482      F4687   1.383       .  S
C3482      F3488   1.384       .  S
F3484      C4679   1.383       .  S
F3487      C4682   1.383   1_545  S
C3489      C3490   1.403   1_545  A
C3489      C3494   1.405       .  A
C3489      H3496   1.083       .  S
C3490      C4691   1.421       .  A
C3491      C4690   1.420       .  A
C3491      C3492   1.410       .  A
C3491      C3498   1.522       .  S
C3492      C4693   1.407       .  A
C3492      H3497   1.084       .  S
C3493      C4351   1.484       .  S
C3493      C4692   1.406       .  A
C3493      C3494   1.420   1_565  A
C3494      C3495   1.521       .  S
C3495      F3499   1.385       .  S
C3495      F4700   1.382       .  S
C3495      F3501   1.383       .  S
C3498      F3502   1.384       .  S
C3498      F4703   1.382       .  S
C3498      F3504   1.385       .  S
F3500      C4695   1.382       .  S
F3503      C4698   1.382       .  S
C3505      C3506   1.407       .  A
C3505      C3510   1.405       .  A
C3505      H3512   1.081       .  S
C3506      C4321   1.495       .  S
C3506      C4707   1.425   1_565  A
C3507      C4706   1.425       .  A
C3507      C3508   1.407       .  A
C3507      C3514   1.525       .  S
C3508      C4709   1.409       .  A
C3508      H3513   1.081       .  S
C3509      C4708   1.409   1_565  A
C3509      C3510   1.426       .  A
C3510      C3511   1.523       .  S
C3511      F4715   1.386       .  S
C3511      F4716   1.383       .  S
C3511      F3517   1.381       .  S
C3514      F3518   1.384       .  S
C3514      F4719   1.379       .  S
C3514      F4720   1.384       .  S
F3515      C4711   1.385       .  S
F3516      C4711   1.383       .  S
F3519      C4714   1.380       .  S
F3520      C4714   1.384       .  S
C3521      C4722   1.407       .  A
C3521      C3526   1.407       .  A
C3521      H3528   1.082       .  S
C3522      C4721   1.407       .  A
C3522      C3523   1.429       .  A
C3523      C3524   1.411       .  A
C3523      C3530   1.528       .  S
C3524      C3525   1.409       .  A
C3524      H3529   1.082       .  S
C3525      C4320   1.504       .  S
C3525      C4726   1.427       .  A
C3526      C4725   1.427       .  A
C3526      C3527   1.526       .  S
C3527      F4731   1.385       .  S
C3527      F4732   1.383       .  S
C3527      F3533   1.379       .  S
C3530      F3534   1.384       .  S
C3530      F4735   1.374       .  S
C3530      F4736   1.383       .  S
F3531      C4727   1.385       .  S
F3532      C4727   1.383       .  S
F3535      C4730   1.373       .  S
F3536      C4730   1.384       .  S
C3537      C3538   1.400       .  A
C3537      C3542   1.404       .  A
C3537      H3544   1.083       .  S
C3539      C3540   1.410       .  A
C3539      C3546   1.524       .  S
C3540      H3545   1.082       .  S
C3541      C3542   1.422       .  A
C3542      C3543   1.520       .  S
C3543      F3547   1.385       .  S
C3543      F3548   1.384       .  S
C3543      F3549   1.382       .  S
C3546      F3550   1.383       .  S
C3546      F3551   1.383       .  S
C3546      F3552   1.384       .  S
C3553      C3554   1.404       .  A
C3553      C3558   1.404       .  A
C3553      H3560   1.083       .  S
C3555      C3556   1.407       .  A
C3555      C3562   1.521       .  S
C3556      H3561   1.083       .  S
C3557      C3558   1.417       .  A
C3558      C3559   1.518       .  S
C3559      F3563   1.385       .  S
C3559      F3564   1.382       .  S
C3559      F3565   1.384       .  S
C3562      F3566   1.380       .  S
C3562      F3567   1.382       .  S
C3562      F3568   1.386       .  S
C3569      C3570   1.408       .  A
C3569      C3574   1.405       .  A
C3569      H3576   1.082       .  S
C3571      C3572   1.399       .  A
C3571      C3578   1.509       .  S
C3572      H3577   1.082       .  S
C3573      C3574   1.426       .  A
C3574      C3575   1.520       .  S
C3575      F3581   1.385       .  S
C3578      F3582   1.384       .  S
C3585      C3586   1.405       .  A
C3585      C3590   1.407       .  A
C3585      H3592   1.084       .  S
C3587      C3588   1.402       .  A
C3587      C3594   1.520       .  S
C3588      H3593   1.084       .  S
C3589      C3590   1.413       .  A
C3590      C3591   1.517       .  S
C3591      F3595   1.383       .  S
C3591      F3596   1.385       .  S
C3591      F3597   1.379       .  S
C3594      F3598   1.382       .  S
C3594      F3599   1.382       .  S
C3594      F3600   1.385       .  S
O3601     Zr3637   2.438       .  S
O3601      C3612   1.292       .  A
O3602     Zr3636   2.458       .  S
O3602      C3613   1.296       .  A
O3603     Zr3609   2.458       .  S
O3603      C3614   1.297       .  A
O3604      C3615   1.296       .  A
O3605     Zr3639   2.442   1_556  S
O3605      C3615   1.293       .  A
O3606     Zr3638   2.450       .  S
O3606      C3614   1.293   1_554  A
O3607     Zr4209   2.431       .  S
O3607      C3613   1.289       .  A
O3608     Zr3609   2.422   1_554  S
O3608      C3612   1.289       .  A
Zr3609     O4207   2.431       .  S
Zr3609     O3611   2.348   1_556  S
Zr3609     O4217   2.341       .  S
O3610     Zr4239   2.344       .  S
O3611     Zr3637   2.341       .  S
O3611     Zr3638   2.335       .  S
C3612      C4189   1.466       .  S
C3613      C4141   1.489       .  S
C3614      C4058   1.500       .  S
C3615      C4029   1.494       .  S
H3616      O3617   0.965       .  S
O3617     Zr4209   2.341       .  S
O3617     Zr3636   2.342       .  S
O3617     Zr4238   2.348       .  S
H3618      O3619   0.965       .  S
O3619     Zr3639   2.340       .  S
O3620      C3643   1.297       .  A
O3621      C3644   1.291       .  A
O3622     Zr4238   2.426       .  S
O3622      C3645   1.289       .  A
O3623     Zr4239   2.436       .  S
O3623      C3646   1.293       .  A
O3624     Zr3639   2.456       .  S
O3624      C3647   1.297       .  A
O3625     Zr3638   2.440       .  S
O3625      C3648   1.294       .  A
O3626     Zr3640   2.461       .  S
O3626      C3649   1.295       .  A
O3627      C3650   1.295       .  A
O3628      C3649   1.292       .  A
O3629      C3650   1.294       .  A
O3630     Zr3636   2.451       .  S
O3630      C3645   1.296       .  A
O3631     Zr3637   2.441       .  S
O3631      C3648   1.290       .  A
O3632      C3647   1.285       .  A
O3633      C3646   1.288       .  A
O3634     Zr4240   2.427       .  S
O3634      C3643   1.288       .  A
O3635     Zr3640   2.414       .  S
O3635      C3644   1.289       .  A
Zr3638     O4222   2.426   1_554  S
Zr3638     O4217   2.348   1_554  S
Zr3639     O4223   2.436   1_554  S
Zr3639     O4210   2.344   1_554  S
Zr3640     O4234   2.428   1_554  S
Zr3640     O4242   2.340   1_554  S
Zr3640     O3652   2.345       .  S
O3642     Zr4240   2.340       .  S
C3643      C4154   1.489       .  S
C3644      C4170   1.495       .  S
C3645      C4090   1.482       .  S
C3646      C4074   1.498       .  S
C3647      C4122   1.503       .  S
C3648      C4109   1.500       .  S
C3649      C4042   1.496       .  S
C3650      C4010   1.490       .  S
H3651      O3652   0.966       .  S
H3653      O3654   0.963       .  S
O3655     Zr3691   2.413       .  S
O3655      C3666   1.285       .  A
O3656     Zr3690   2.457       .  S
O3656      C3667   1.297       .  A
O3657     Zr3663   2.449       .  S
O3657      C3668   1.295       .  A
O3658      C3669   1.293       .  A
O3659     Zr3693   2.441       .  S
O3659      C3669   1.294       .  A
O3660     Zr3692   2.425       .  S
O3660      C3668   1.287       .  A
O3661     Zr3663   2.417       .  S
O3661      C3667   1.287       .  A
O3662     Zr3663   2.458       .  S
O3662      C3666   1.295       .  A
Zr3663     O3665   2.330       .  S
Zr3663     O3671   2.350       .  S
O3664     Zr3693   2.338       .  S
O3665     Zr3691   2.330       .  S
O3665     Zr3692   2.338       .  S
C3666      C4186   1.477       .  S
C3667      C4138   1.484       .  S
C3668      C3917   1.490       .  S
C3669      C3882   1.494       .  S
H3670      O3671   0.968       .  S
O3671     Zr3690   2.345       .  S
O3671     Zr3692   2.344       .  S
H3672      O3673   0.963       .  S
O3673     Zr3693   2.351       .  S
O3674     Zr3690   2.444       .  S
O3674      C3697   1.294       .  A
O3675     Zr3691   2.410       .  S
O3675      C3698   1.284       .  A
O3676     Zr3692   2.455       .  S
O3676      C3699   1.297       .  A
O3677     Zr3693   2.439       .  S
O3677      C3700   1.291       .  A
O3678     Zr3693   2.418       .  S
O3678      C3701   1.286       .  A
O3679     Zr3692   2.447       .  S
O3679      C3702   1.294       .  A
O3680     Zr3694   2.470       .  S
O3680      C3703   1.300       .  A
O3681      C3704   1.296       .  A
O3682     Zr3692   2.427       .  S
O3682      C3703   1.287       .  A
O3683     Zr3693   2.458       .  S
O3683      C3704   1.295       .  A
O3684     Zr3690   2.439       .  S
O3684      C3699   1.289       .  A
O3685     Zr3691   2.443       .  S
O3685      C3702   1.291       .  A
O3686      C3701   1.295       .  A
O3687      C3700   1.291       .  A
O3688     Zr3694   2.437       .  S
O3688      C3697   1.291       .  A
O3689     Zr3694   2.442       .  S
O3689      C3698   1.295       .  A
Zr3690     O3696   2.344       .  S
Zr3691     O3706   2.342       .  S
Zr3692     O3696   2.334       .  S
Zr3692     O3706   2.347       .  S
Zr3693     O3695   2.338       .  S
Zr3693     O3708   2.335       .  S
Zr3694     O3696   2.341       .  S
Zr3694     O3706   2.342       .  S
C3697      C4157   1.484       .  S
C3698      C4173   1.492       .  S
C3699      C3978   1.511       .  S
C3700      C3994   1.473       .  S
C3701      C3946   1.491       .  S
C3702      C3962   1.498       .  S
C3703      C3930   1.508       .  S
C3704      C3901   1.500       .  S
H3705      O3706   0.962       .  S
H3707      O3708   0.965       .  S
O3709     Zr3745   2.457       .  S
O3709      C3720   1.297       .  A
O3710     Zr3744   2.429       .  S
O3710      C3721   1.292   1_545  A
O3711     Zr3717   2.461   1_565  S
O3711      C3722   1.296       .  A
O3712      C3723   1.295       .  A
O3713     Zr3747   2.432       .  S
O3713      C3723   1.290       .  A
O3714     Zr3746   2.434       .  S
O3714      C3722   1.292       .  A
O3715     Zr3717   2.424   1_565  S
O3715      C3721   1.286       .  A
O3716     Zr3717   2.433       .  S
O3716      C3720   1.288       .  A
Zr3717     O3719   2.337   1_545  S
Zr3717     O3725   2.339   1_545  S
O3718     Zr3747   2.337       .  S
O3719     Zr3745   2.344   1_565  S
O3719     Zr3746   2.355       .  S
C3722      C3837   1.487       .  S
C3723      C3818   1.479       .  S
H3724      O3725   0.965       .  S
O3725     Zr3744   2.342   1_565  S
O3725     Zr3746   2.339       .  S
H3726      O3727   0.965       .  S
O3727     Zr3747   2.338       .  S
O3728     Zr3744   2.440   1_565  S
O3728      C3751   1.291       .  A
O3729     Zr3745   2.429       .  S
O3729      C3752   1.292       .  A
O3730     Zr3746   2.480       .  S
O3730      C3753   1.301       .  A
O3731     Zr3747   2.444       .  S
O3731      C3754   1.294       .  A
O3732     Zr3747   2.443       .  S
O3732      C3755   1.291       .  A
O3733     Zr3746   2.459       .  S
O3733      C3756   1.297       .  A
O3734     Zr3748   2.446   1_565  S
O3734      C3757   1.292       .  A
O3735      C3758   1.291       .  A
O3736     Zr3746   2.442       .  S
O3736      C3757   1.292       .  A
O3737     Zr3747   2.438       .  S
O3737      C3758   1.291       .  A
O3738     Zr3744   2.425   1_565  S
O3738      C3753   1.287       .  A
O3739     Zr3745   2.444   1_565  S
O3739      C3756   1.292       .  A
O3740      C3755   1.295       .  A
O3741      C3754   1.290       .  A
O3742     Zr3748   2.438       .  S
O3742      C3751   1.292   1_545  A
O3743     Zr3748   2.435       .  S
O3743      C3752   1.288       .  A
Zr3744     O3750   2.342   1_545  S
Zr3745     O3760   2.353   1_545  S
Zr3746     O3750   2.343       .  S
Zr3746     O3760   2.348       .  S
Zr3747     O3749   2.342       .  S
Zr3747     O3762   2.342       .  S
Zr3748     O3750   2.340   1_545  S
Zr3748     O3760   2.342   1_545  S
C3753      C3933   1.510       .  S
C3754      C3914   1.494       .  S
C3755      C3885   1.495       .  S
C3756      C3898   1.494       .  S
C3757      C3850   1.474       .  S
C3758      C3866   1.467       .  S
H3759      O3760   0.965       .  S
H3761      O3762   0.966       .  S
O3763     Zr3799   2.456       .  S
O3763      C3774   1.295       .  A
O3764     Zr3798   2.450       .  S
O3764      C3775   1.293       .  A
O3765     Zr4371   2.446   1_554  S
O3765      C3776   1.295       .  A
O3766     Zr3771   2.459       .  S
O3766      C3777   1.298       .  A
O3767     Zr3801   2.433       .  S
O3767      C3777   1.288       .  A
O3768     Zr3800   2.445       .  S
O3768      C3776   1.292       .  A
O3769     Zr3771   2.448       .  S
O3769      C3775   1.295       .  A
O3770     Zr3771   2.455       .  S
O3770      C3774   1.294       .  A
Zr3771     O4365   2.446       .  S
Zr3771     O3772   2.341       .  S
Zr3771     O4373   2.342       .  S
Zr3771     O3781   2.340       .  S
Zr3771     O4379   2.349       .  S
O3772     Zr3798   2.343       .  S
O3772     Zr3801   2.342       .  S
O3773     Zr4371   2.342   1_554  S
O3773     Zr4399   2.337   1_554  S
O3773     Zr3800   2.345       .  S
C3774      C4661   1.503       .  S
C3775      C4645   1.498       .  S
C3776      C3965   1.494       .  S
C3777      C3981   1.509       .  S
H3778      O3779   0.964       .  S
O3779     Zr4371   2.349   1_554  S
O3779     Zr4398   2.344       .  S
O3779     Zr3800   2.347       .  S
H3780      O3781   0.966       .  S
O3781     Zr3799   2.340       .  S
O3781     Zr3801   2.348       .  S
O3782     Zr3798   2.448       .  S
O3782      C3805   1.294       .  A
O3783     Zr3799   2.443       .  S
O3783      C3806   1.292       .  A
O3784     Zr3800   2.445       .  S
O3784      C3807   1.292       .  A
O3785     Zr3801   2.437       .  S
O3785      C3808   1.291       .  A
O3786     Zr3801   2.440       .  S
O3786      C3809   1.292       .  A
O3787     Zr3800   2.442       .  S
O3787      C3810   1.293       .  A
O3788     Zr4402   2.407   1_554  S
O3788      C3811   1.282       .  A
O3789     Zr3802   2.434       .  S
O3789      C3812   1.290       .  A
O3790     Zr3800   2.453       .  S
O3790      C3811   1.296       .  A
O3791     Zr3801   2.447       .  S
O3791      C3812   1.293       .  A
O3792     Zr4398   2.447       .  S
O3792      C3807   1.294       .  A
O3793     Zr4399   2.435   1_554  S
O3793      C3810   1.290       .  A
O3794     Zr3799   2.427       .  S
O3794      C3809   1.289       .  A
O3795     Zr3798   2.443       .  S
O3795      C3808   1.292       .  A
O3796     Zr3802   2.474       .  S
O3796      C3805   1.299       .  A
O3797     Zr3802   2.454       .  S
O3797      C3806   1.295       .  A
Zr3798     O4392   2.447       .  S
Zr3798     O4379   2.344       .  S
Zr3798     O4404   2.343       .  S
Zr3798     O3816   2.349       .  S
Zr3799     O4393   2.435       .  S
Zr3799     O4373   2.337       .  S
Zr3799     O3803   2.348       .  S
Zr3799     O4414   2.341       .  S
Zr3800     O3804   2.345       .  S
Zr3800     O3814   2.339       .  S
Zr3801     O3803   2.336       .  S
Zr3801     O3816   2.344       .  S
Zr3802     O4388   2.406       .  S
Zr3802     O3803   2.341       .  S
Zr3802     O4404   2.345       .  S
Zr3802     O3816   2.337       .  S
Zr3802     O4414   2.349       .  S
O3804     Zr4398   2.343       .  S
O3804     Zr4402   2.345   1_554  S
C3805      C4613   1.494       .  S
C3806      C4626   1.489       .  S
C3807      C3834   1.484       .  S
C3808      C3853   1.471       .  S
C3809      C3869   1.464       .  S
C3810      C3821   1.477       .  S
C3811      C3949   1.494       .  S
C3812      C3997   1.474       .  S
H3813      O3814   0.963       .  S
O3814     Zr4399   2.341   1_554  S
O3814     Zr4402   2.349   1_554  S
H3815      O3816   0.970       .  S
C3817      C3818   1.402       .  A
C3817      C3822   1.407       .  A
C3817      H3824   1.079       .  S
C3818      C3819   1.418       .  A
C3819      C3820   1.407       .  A
C3819      C3826   1.520       .  S
C3820      C3821   1.404       .  A
C3820      H3825   1.084       .  S
C3821      C3822   1.418       .  A
C3822      C3823   1.521       .  S
C3823      F3827   1.385       .  S
C3823      F3828   1.382       .  S
C3823      F3829   1.380       .  S
C3826      F3830   1.384       .  S
C3826      F3831   1.381       .  S
C3826      F3832   1.384       .  S
C3833      C3834   1.404       .  A
C3833      C3838   1.408       .  A
C3833      H3840   1.084       .  S
C3834      C3835   1.419       .  A
C3835      C3836   1.410       .  A
C3835      C3842   1.521       .  S
C3836      C3837   1.406       .  A
C3836      H3841   1.083       .  S
C3837      C3838   1.418       .  A
C3838      C3839   1.516       .  S
C3839      F3843   1.385       .  S
C3839      F3844   1.383       .  S
C3839      F3845   1.377       .  S
C3842      F3846   1.382       .  S
C3842      F3847   1.382       .  S
C3842      F3848   1.385       .  S
C3849      C3850   1.403       .  A
C3849      C3854   1.409       .  A
C3849      H3856   1.083       .  S
C3850      C3851   1.415       .  A
C3851      C3852   1.407       .  A
C3851      C3858   1.517       .  S
C3852      C3853   1.401       .  A
C3852      H3857   1.083       .  S
C3853      C3854   1.414       .  A
C3854      C3855   1.518       .  S
C3855      F3859   1.384       .  S
C3855      F3860   1.383       .  S
C3855      F3861   1.382       .  S
C3858      F3862   1.382       .  S
C3858      F3863   1.383       .  S
C3858      F3864   1.383       .  S
C3865      C3866   1.400       .  A
C3865      C3870   1.403       .  A
C3865      H3872   1.082       .  S
C3866      C3867   1.414       .  A
C3867      C3868   1.405       .  A
C3867      C3874   1.516       .  S
C3868      C3869   1.401       .  A
C3868      H3873   1.084       .  S
C3869      C3870   1.412       .  A
C3870      C3871   1.517       .  S
C3871      F3875   1.385       .  S
C3871      F3876   1.383       .  S
C3871      F3877   1.383       .  S
C3874      F3878   1.383       .  S
C3874      F3879   1.381       .  S
C3874      F3880   1.385       .  S
C3881      C3882   1.406       .  A
C3881      C3886   1.407       .  A
C3881      H3888   1.082       .  S
C3882      C3883   1.422       .  A
C3883      C3884   1.410       .  A
C3883      C3890   1.519       .  S
C3884      C3885   1.406       .  A
C3884      H3889   1.083       .  S
C3885      C3886   1.422       .  A
C3886      C3887   1.518       .  S
C3887      F3891   1.385       .  S
C3887      F3892   1.379       .  S
C3887      F3893   1.382       .  S
C3890      F3894   1.382       .  S
C3890      F3895   1.381       .  S
C3890      F3896   1.382       .  S
C3897      C3898   1.403       .  A
C3897      C3902   1.410       .  A
C3897      H3904   1.083       .  S
C3898      C3899   1.422       .  A
C3899      C3900   1.412       .  A
C3899      C3906   1.519       .  S
C3900      C3901   1.406       .  A
C3900      H3905   1.083       .  S
C3901      C3902   1.423       .  A
C3902      C3903   1.516       .  S
C3903      F3907   1.386       .  S
C3903      F3908   1.379       .  S
C3903      F3909   1.383       .  S
C3906      F3910   1.383       .  S
C3906      F3911   1.383       .  S
C3906      F3912   1.385       .  S
C3913      C3914   1.405       .  A
C3913      C3918   1.406       .  A
C3913      H3920   1.081       .  S
C3914      C3915   1.425       .  A
C3915      C3916   1.410       .  A
C3915      C3922   1.522       .  S
C3916      C3917   1.405       .  A
C3916      H3921   1.083       .  S
C3917      C3918   1.423       .  A
C3918      C3919   1.524       .  S
C3919      F3923   1.384       .  S
C3919      F3924   1.383       .  S
C3919      F3925   1.383       .  S
C3922      F3926   1.381       .  S
C3922      F3927   1.383       .  S
C3922      F3928   1.384       .  S
C3929      C3930   1.404       .  A
C3929      C3934   1.410       .  A
C3929      H3936   1.080       .  S
C3930      C3931   1.431       .  A
C3931      C3932   1.414       .  A
C3931      C3938   1.525       .  S
C3932      C3933   1.407       .  A
C3932      H3937   1.082       .  S
C3933      C3934   1.431       .  A
C3934      C3935   1.525       .  S
C3935      F3939   1.384       .  S
C3935      F3940   1.383       .  S
C3935      F3941   1.383       .  S
C3938      F3942   1.384       .  S
C3938      F3943   1.384       .  S
C3938      F3944   1.384       .  S
C3945      C3946   1.403       .  A
C3945      C3950   1.401       .  A
C3945      H3952   1.079       .  S
C3946      C3947   1.423       .  A
C3947      C3948   1.404       .  A
C3947      C3954   1.522       .  S
C3948      C3949   1.407       .  A
C3948      H3953   1.082       .  S
C3949      C3950   1.429       .  A
C3950      C3951   1.527       .  S
C3951      F3955   1.385       .  S
C3951      F3956   1.380       .  S
C3951      F3957   1.383       .  S
C3954      F3958   1.379       .  S
C3954      F3959   1.383       .  S
C3954      F3960   1.385       .  S
C3961      C3962   1.406       .  A
C3961      C3966   1.410       .  A
C3961      H3968   1.083       .  S
C3962      C3963   1.423       .  A
C3963      C3964   1.407       .  A
C3963      C3970   1.515       .  S
C3964      C3965   1.404       .  A
C3964      H3969   1.083       .  S
C3965      C3966   1.422       .  A
C3966      C3967   1.519       .  S
C3967      F3971   1.385       .  S
C3967      F3972   1.382       .  S
C3967      F3973   1.380       .  S
C3970      F3974   1.384       .  S
C3970      F3975   1.384       .  S
C3970      F3976   1.385       .  S
C3977      C3978   1.409       .  A
C3977      C3982   1.412       .  A
C3977      H3984   1.081       .  S
C3978      C3979   1.430       .  A
C3979      C3980   1.411       .  A
C3979      C3986   1.524       .  S
C3980      C3981   1.407       .  A
C3980      H3985   1.081       .  S
C3981      C3982   1.430       .  A
C3982      C3983   1.525       .  S
C3983      F3987   1.385       .  S
C3983      F3988   1.383       .  S
C3983      F3989   1.383       .  S
C3986      F3990   1.383       .  S
C3986      F3991   1.384       .  S
C3986      F3992   1.385       .  S
C3993      C3994   1.400       .  A
C3993      C3998   1.406       .  A
C3993      H4000   1.084       .  S
C3994      C3995   1.415       .  A
C3995      C3996   1.408       .  A
C3995      C4002   1.516       .  S
C3996      C3997   1.403       .  A
C3996      H4001   1.083       .  S
C3997      C3998   1.415       .  A
C3998      C3999   1.516       .  S
C3999      F4003   1.384       .  S
C3999      F4004   1.384       .  S
C3999      F4005   1.382       .  S
C4002      F4006   1.383       .  S
C4002      F4007   1.383       .  S
C4002      F4008   1.384       .  S
C4009      C4010   1.403       .  A
C4009      C4014   1.410       .  A
C4009      H4016   1.085       .  S
C4010      C4611   1.418   1_554  A
C4011      C4610   1.418       .  A
C4011      C4012   1.414       .  A
C4011      C4018   1.520       .  S
C4012      C4613   1.408       .  A
C4012      H4017   1.083       .  S
C4013      C4405   1.494       .  S
C4013      C4612   1.408   1_554  A
C4013      C4014   1.424       .  A
C4014      C4015   1.517       .  S
C4015      F4619   1.384       .  S
C4015      F4620   1.382       .  S
C4015      F4021   1.380       .  S
C4018      F4022   1.382       .  S
C4018      F4623   1.383       .  S
C4018      F4624   1.384       .  S
F4019      C4615   1.384       .  S
F4020      C4615   1.382       .  S
F4023      C4618   1.383       .  S
F4024      C4618   1.384       .  S
C4025      C4026   1.404       .  A
C4025      C4030   1.411       .  A
C4025      H4032   1.083       .  S
C4026      C4406   1.489       .  S
C4026      C4627   1.420   1_556  A
C4027      C4626   1.420       .  A
C4027      C4028   1.411       .  A
C4027      C4034   1.522       .  S
C4028      C4629   1.408       .  A
C4028      H4033   1.083       .  S
C4029      C4628   1.408   1_556  A
C4029      C4030   1.421       .  A
C4030      C4031   1.519       .  S
C4031      F4635   1.383       .  S
C4031      F4636   1.384       .  S
C4031      F4037   1.382       .  S
C4034      F4038   1.383       .  S
C4034      F4639   1.384       .  S
C4034      F4640   1.384       .  S
F4035      C4631   1.383       .  S
F4036      C4631   1.384       .  S
F4039      C4634   1.384       .  S
F4040      C4634   1.384       .  S
C4041      C4042   1.407       .  A
C4041      C4046   1.409       .  A
C4041      H4048   1.083       .  S
C4042      C4643   1.420   1_554  A
C4043      C4642   1.420       .  A
C4043      C4044   1.412       .  A
C4043      C4050   1.520       .  S
C4044      C4645   1.409       .  A
C4044      H4049   1.083       .  S
C4045      C4375   1.498       .  S
C4045      C4644   1.409   1_554  A
C4045      C4046   1.424       .  A
C4046      C4047   1.521       .  S
C4047      F4651   1.385       .  S
C4047      F4652   1.383       .  S
C4047      F4053   1.381       .  S
C4050      F4054   1.383       .  S
C4050      F4655   1.383       .  S
C4050      F4656   1.384       .  S
F4051      C4647   1.385       .  S
F4052      C4647   1.383       .  S
F4055      C4650   1.383       .  S
F4056      C4650   1.384       .  S
C4057      C4058   1.405   1_554  A
C4057      C4062   1.410       .  A
C4057      H4064   1.083       .  S
C4058      C4659   1.424       .  A
C4059      C4658   1.424       .  A
C4059      C4060   1.415       .  A
C4059      C4066   1.522       .  S
C4060      C4661   1.409       .  A
C4060      H4065   1.083       .  S
C4061      C4374   1.503       .  S
C4061      C4660   1.409       .  A
C4061      C4062   1.424   1_556  A
C4062      C4063   1.521       .  S
C4063      F4067   1.385       .  S
C4063      F4668   1.382       .  S
C4063      F4069   1.382       .  S
C4066      F4070   1.383       .  S
C4066      F4671   1.383       .  S
C4066      F4072   1.385       .  S
F4068      C4663   1.383       .  S
F4071      C4666   1.383       .  S
C4073      C4074   1.409       .  A
C4073      C4078   1.407       .  A
C4073      H4080   1.081       .  S
C4075      C4076   1.405       .  A
C4075      C4082   1.526       .  S
C4076      H4081   1.080       .  S
C4077      C4078   1.424       .  A
C4078      C4079   1.524       .  S
C4079      F4083   1.385       .  S
C4079      F4085   1.383       .  S
C4082      F4086   1.383       .  S
C4082      F4088   1.385       .  S
C4089      C4090   1.402       .  A
C4089      C4094   1.404       .  A
C4089      H4096   1.083       .  S
C4091      C4092   1.409       .  A
C4091      C4098   1.523       .  S
C4092      H4097   1.083       .  S
C4093      C4094   1.420       .  A
C4094      C4095   1.521       .  S
C4095      F4099   1.385       .  S
C4095      F4101   1.382       .  S
C4098      F4102   1.384       .  S
C4098      F4104   1.385       .  S
C4105      C4106   1.406       .  A
C4105      C4110   1.406       .  A
C4105      H4112   1.082       .  S
C4107      C4108   1.406       .  A
C4107      C4114   1.525       .  S
C4108      H4113   1.081       .  S
C4109      C4110   1.425       .  A
C4110      C4111   1.521       .  S
C4111      F4117   1.381       .  S
C4114      F4118   1.384   1_545  S
C4121      C4126   1.408       .  A
C4121      H4128   1.082       .  S
C4122      C4123   1.430       .  A
C4123      C4124   1.410       .  A
C4123      C4130   1.529       .  S
C4124      C4125   1.408       .  A
C4124      H4129   1.082       .  S
C4126      C4127   1.525       .  S
C4127      F4133   1.378       .  S
C4130      F4134   1.383       .  S
C4137      C4138   1.400       .  A
C4137      C4142   1.405       .  A
C4137      H4144   1.083       .  S
C4139      C4140   1.410       .  A
C4139      C4146   1.523       .  S
C4140      H4145   1.083       .  S
C4141      C4142   1.422       .  A
C4142      C4143   1.520       .  S
C4143      F4147   1.385       .  S
C4143      F4148   1.384       .  S
C4143      F4149   1.382       .  S
C4146      F4150   1.383       .  S
C4146      F4151   1.382       .  S
C4146      F4152   1.384       .  S
C4153      C4154   1.404       .  A
C4153      C4158   1.404       .  A
C4153      H4160   1.083       .  S
C4155      C4156   1.409       .  A
C4155      C4162   1.521       .  S
C4156      H4161   1.083       .  S
C4157      C4158   1.418       .  A
C4158      C4159   1.518       .  S
C4159      F4163   1.385       .  S
C4159      F4164   1.382       .  S
C4159      F4165   1.384       .  S
C4162      F4166   1.380       .  S
C4162      F4167   1.383       .  S
C4162      F4168   1.386       .  S
C4169      C4170   1.406       .  A
C4169      C4174   1.403       .  A
C4169      H4176   1.082       .  S
C4171      C4172   1.401       .  A
C4171      C4178   1.511       .  S
C4172      H4177   1.082       .  S
C4173      C4174   1.426       .  A
C4174      C4175   1.520       .  S
C4175      F4181   1.385       .  S
C4178      F4182   1.384       .  S
C4185      C4186   1.405       .  A
C4185      C4190   1.407       .  A
C4185      H4192   1.084       .  S
C4187      C4188   1.404       .  A
C4187      C4194   1.520       .  S
C4188      H4193   1.084       .  S
C4189      C4190   1.412       .  A
C4190      C4191   1.518       .  S
C4191      F4195   1.383       .  S
C4191      F4196   1.385       .  S
C4191      F4197   1.379       .  S
C4194      F4198   1.382       .  S
C4194      F4199   1.382       .  S
C4194      F4200   1.385       .  S
O4201     Zr4237   2.438       .  S
O4201      C4212   1.292       .  A
O4202     Zr4236   2.458       .  S
O4202      C4213   1.296       .  A
O4203     Zr4209   2.458       .  S
O4203      C4214   1.297       .  A
O4204      C4215   1.296       .  A
O4205     Zr4239   2.441       .  S
O4205      C4215   1.293       .  A
O4206     Zr4238   2.450       .  S
O4206      C4214   1.293       .  A
O4207      C4213   1.289       .  A
O4208     Zr4209   2.422       .  S
O4208      C4212   1.289       .  A
Zr4209     O4211   2.348       .  S
O4211     Zr4237   2.341       .  S
O4211     Zr4238   2.335       .  S
C4212      C4789   1.466       .  S
C4213      C4741   1.489       .  S
C4214      C4658   1.500       .  S
C4215      C4629   1.495       .  S
H4216      O4217   0.965       .  S
O4217     Zr4236   2.342       .  S
H4218      O4219   0.965       .  S
O4219     Zr4239   2.340       .  S
O4220      C4243   1.297       .  A
O4221      C4244   1.291       .  A
O4222      C4245   1.289       .  A
O4223      C4246   1.293       .  A
O4224     Zr4239   2.456       .  S
O4224      C4247   1.297       .  A
O4225     Zr4238   2.440       .  S
O4225      C4248   1.294       .  A
O4226     Zr4240   2.461       .  S
O4226      C4249   1.295       .  A
O4227      C4250   1.295       .  A
O4228      C4249   1.292       .  A
O4229      C4250   1.294       .  A
O4230     Zr4236   2.451       .  S
O4230      C4245   1.296       .  A
O4231     Zr4237   2.441       .  S
O4231      C4248   1.290       .  A
O4232      C4247   1.285       .  A
O4233      C4246   1.288       .  A
O4234      C4243   1.288       .  A
O4235     Zr4240   2.414       .  S
O4235      C4244   1.289       .  A
Zr4240     O4252   2.345       .  S
C4243      C4754   1.489       .  S
C4244      C4770   1.495       .  S
C4245      C4690   1.482       .  S
C4246      C4674   1.498       .  S
C4247      C4722   1.503       .  S
C4248      C4709   1.500       .  S
C4249      C4642   1.496       .  S
C4250      C4610   1.490       .  S
H4251      O4252   0.966       .  S
H4253      O4254   0.963       .  S
O4255     Zr4291   2.413       .  S
O4255      C4266   1.285       .  A
O4256     Zr4290   2.457       .  S
O4256      C4267   1.297       .  A
O4257     Zr4263   2.449       .  S
O4257      C4268   1.295       .  A
O4258      C4269   1.293       .  A
O4259     Zr4293   2.442       .  S
O4259      C4269   1.294       .  A
O4260     Zr4292   2.426       .  S
O4260      C4268   1.288       .  A
O4261     Zr4263   2.417       .  S
O4261      C4267   1.287       .  A
O4262     Zr4263   2.457       .  S
O4262      C4266   1.295       .  A
Zr4263     O4265   2.330       .  S
Zr4263     O4271   2.350       .  S
O4264     Zr4293   2.339       .  S
O4265     Zr4291   2.330       .  S
O4265     Zr4292   2.338       .  S
C4266      C4786   1.476       .  S
C4267      C4738   1.484       .  S
C4268      C4517   1.490       .  S
C4269      C4482   1.494       .  S
H4270      O4271   0.968       .  S
O4271     Zr4290   2.345       .  S
O4271     Zr4292   2.344       .  S
H4272      O4273   0.963       .  S
O4273     Zr4293   2.351       .  S
O4274     Zr4290   2.444       .  S
O4274      C4297   1.294       .  A
O4275     Zr4291   2.410       .  S
O4275      C4298   1.284       .  A
O4276     Zr4292   2.455       .  S
O4276      C4299   1.297       .  A
O4277     Zr4293   2.439       .  S
O4277      C4300   1.291       .  A
O4278     Zr4293   2.418       .  S
O4278      C4301   1.286       .  A
O4279     Zr4292   2.447       .  S
O4279      C4302   1.294       .  A
O4280     Zr4294   2.470       .  S
O4280      C4303   1.300       .  A
O4281      C4304   1.296       .  A
O4282     Zr4292   2.427       .  S
O4282      C4303   1.287       .  A
O4283     Zr4293   2.458       .  S
O4283      C4304   1.295       .  A
O4284     Zr4290   2.439       .  S
O4284      C4299   1.289       .  A
O4285     Zr4291   2.443       .  S
O4285      C4302   1.291       .  A
O4286      C4301   1.295       .  A
O4287      C4300   1.291       .  A
O4288     Zr4294   2.437       .  S
O4288      C4297   1.291       .  A
O4289     Zr4294   2.442       .  S
O4289      C4298   1.295       .  A
Zr4290     O4296   2.344       .  S
Zr4291     O4306   2.342       .  S
Zr4292     O4296   2.334       .  S
Zr4292     O4306   2.347       .  S
Zr4293     O4295   2.338       .  S
Zr4293     O4308   2.335       .  S
Zr4294     O4296   2.341       .  S
Zr4294     O4306   2.342       .  S
C4297      C4757   1.484       .  S
C4298      C4773   1.492       .  S
C4299      C4578   1.511       .  S
C4300      C4594   1.473       .  S
C4301      C4546   1.490       .  S
C4302      C4562   1.498       .  S
C4303      C4530   1.508       .  S
C4304      C4501   1.499       .  S
H4305      O4306   0.962       .  S
H4307      O4308   0.965       .  S
O4309     Zr4345   2.457       .  S
O4309      C4320   1.296       .  A
O4310     Zr4344   2.428       .  S
O4310      C4321   1.292   1_545  A
O4311     Zr4317   2.461   1_565  S
O4311      C4322   1.296       .  A
O4312      C4323   1.295       .  A
O4313     Zr4347   2.432       .  S
O4313      C4323   1.290       .  A
O4314     Zr4346   2.434       .  S
O4314      C4322   1.292       .  A
O4315     Zr4317   2.425   1_565  S
O4315      C4321   1.286       .  A
O4316     Zr4317   2.433       .  S
O4316      C4320   1.288       .  A
Zr4317     O4319   2.337   1_545  S
Zr4317     O4325   2.339   1_545  S
O4318     Zr4347   2.337       .  S
O4319     Zr4345   2.344   1_565  S
O4319     Zr4346   2.355       .  S
C4322      C4437   1.486       .  S
C4323      C4418   1.479       .  S
H4324      O4325   0.965       .  S
O4325     Zr4344   2.342   1_565  S
O4325     Zr4346   2.339       .  S
H4326      O4327   0.965       .  S
O4327     Zr4347   2.338       .  S
O4328     Zr4344   2.440   1_565  S
O4328      C4351   1.291       .  A
O4329     Zr4345   2.429       .  S
O4329      C4352   1.292       .  A
O4330     Zr4346   2.480       .  S
O4330      C4353   1.301       .  A
O4331     Zr4347   2.444       .  S
O4331      C4354   1.294       .  A
O4332     Zr4347   2.443       .  S
O4332      C4355   1.291       .  A
O4333     Zr4346   2.459       .  S
O4333      C4356   1.297       .  A
O4334     Zr4348   2.446   1_565  S
O4334      C4357   1.292       .  A
O4335      C4358   1.291       .  A
O4336     Zr4346   2.442       .  S
O4336      C4357   1.292       .  A
O4337     Zr4347   2.438       .  S
O4337      C4358   1.291       .  A
O4338     Zr4344   2.425   1_565  S
O4338      C4353   1.287       .  A
O4339     Zr4345   2.444   1_565  S
O4339      C4356   1.293       .  A
O4340      C4355   1.295       .  A
O4341      C4354   1.290       .  A
O4342     Zr4348   2.438       .  S
O4342      C4351   1.292   1_545  A
O4343     Zr4348   2.435       .  S
O4343      C4352   1.289       .  A
Zr4344     O4350   2.342   1_545  S
Zr4345     O4360   2.354   1_545  S
Zr4346     O4350   2.343       .  S
Zr4346     O4360   2.348       .  S
Zr4347     O4349   2.342       .  S
Zr4347     O4362   2.342       .  S
Zr4348     O4350   2.339   1_545  S
Zr4348     O4360   2.342   1_545  S
C4353      C4533   1.510       .  S
C4354      C4514   1.494       .  S
C4355      C4485   1.495       .  S
C4356      C4498   1.494       .  S
C4357      C4450   1.474       .  S
C4358      C4466   1.466       .  S
H4359      O4360   0.965       .  S
H4361      O4362   0.966       .  S
O4363     Zr4399   2.456       .  S
O4363      C4374   1.295       .  A
O4364     Zr4398   2.449       .  S
O4364      C4375   1.293       .  A
O4365      C4376   1.295       .  A
O4366     Zr4371   2.459       .  S
O4366      C4377   1.298       .  A
O4367     Zr4401   2.433       .  S
O4367      C4377   1.288       .  A
O4368     Zr4400   2.445       .  S
O4368      C4376   1.292       .  A
O4369     Zr4371   2.448   1_554  S
O4369      C4375   1.295       .  A
O4370     Zr4371   2.455       .  S
O4370      C4374   1.294       .  A
Zr4371     O4372   2.341       .  S
Zr4371     O4381   2.339       .  S
O4372     Zr4398   2.343   1_556  S
O4372     Zr4401   2.342       .  S
O4373     Zr4400   2.345       .  S
C4376      C4565   1.494       .  S
C4377      C4581   1.509       .  S
H4378      O4379   0.964       .  S
O4379     Zr4400   2.347       .  S
H4380      O4381   0.966       .  S
O4381     Zr4399   2.340       .  S
O4381     Zr4401   2.348       .  S
O4382     Zr4398   2.449       .  S
O4382      C4405   1.294       .  A
O4383     Zr4399   2.443       .  S
O4383      C4406   1.292       .  A
O4384     Zr4400   2.445       .  S
O4384      C4407   1.292       .  A
O4385     Zr4401   2.437       .  S
O4385      C4408   1.291       .  A
O4386     Zr4401   2.440       .  S
O4386      C4409   1.291       .  A
O4387     Zr4400   2.442       .  S
O4387      C4410   1.293       .  A
O4388      C4411   1.282       .  A
O4389     Zr4402   2.434       .  S
O4389      C4412   1.291       .  A
O4390     Zr4400   2.452       .  S
O4390      C4411   1.296       .  A
O4391     Zr4401   2.447       .  S
O4391      C4412   1.293       .  A
O4392      C4407   1.294       .  A
O4393      C4410   1.290       .  A
O4394     Zr4399   2.427       .  S
O4394      C4409   1.289       .  A
O4395     Zr4398   2.443   1_556  S
O4395      C4408   1.292       .  A
O4396     Zr4402   2.474   1_554  S
O4396      C4405   1.299       .  A
O4397     Zr4402   2.454       .  S
O4397      C4406   1.295       .  A
Zr4398     O4416   2.349   1_554  S
Zr4399     O4403   2.348       .  S
Zr4400     O4404   2.345       .  S
Zr4400     O4414   2.339       .  S
Zr4401     O4403   2.336       .  S
Zr4401     O4416   2.344       .  S
Zr4402     O4403   2.342       .  S
Zr4402     O4416   2.337       .  S
C4407      C4434   1.484       .  S
C4408      C4453   1.471       .  S
C4409      C4469   1.464       .  S
C4410      C4421   1.477       .  S
C4411      C4549   1.493       .  S
C4412      C4597   1.474       .  S
H4413      O4414   0.964       .  S
H4415      O4416   0.970       .  S
C4417      C4418   1.402       .  A
C4417      C4422   1.407       .  A
C4417      H4424   1.079       .  S
C4418      C4419   1.418       .  A
C4419      C4420   1.407       .  A
C4419      C4426   1.520       .  S
C4420      C4421   1.404       .  A
C4420      H4425   1.084       .  S
C4421      C4422   1.418       .  A
C4422      C4423   1.521       .  S
C4423      F4427   1.385       .  S
C4423      F4428   1.382       .  S
C4423      F4429   1.380       .  S
C4426      F4430   1.384       .  S
C4426      F4431   1.381       .  S
C4426      F4432   1.384       .  S
C4433      C4434   1.404       .  A
C4433      C4438   1.408       .  A
C4433      H4440   1.084       .  S
C4434      C4435   1.419       .  A
C4435      C4436   1.410       .  A
C4435      C4442   1.521       .  S
C4436      C4437   1.405       .  A
C4436      H4441   1.083       .  S
C4437      C4438   1.418       .  A
C4438      C4439   1.516       .  S
C4439      F4443   1.385       .  S
C4439      F4444   1.383       .  S
C4439      F4445   1.377       .  S
C4442      F4446   1.382       .  S
C4442      F4447   1.382       .  S
C4442      F4448   1.385       .  S
C4449      C4450   1.403       .  A
C4449      C4454   1.409       .  A
C4449      H4456   1.083       .  S
C4450      C4451   1.414       .  A
C4451      C4452   1.407       .  A
C4451      C4458   1.517       .  S
C4452      C4453   1.401       .  A
C4452      H4457   1.083       .  S
C4453      C4454   1.415       .  A
C4454      C4455   1.518       .  S
C4455      F4459   1.384       .  S
C4455      F4460   1.383       .  S
C4455      F4461   1.382       .  S
C4458      F4462   1.382       .  S
C4458      F4463   1.383       .  S
C4458      F4464   1.383       .  S
C4465      C4466   1.400       .  A
C4465      C4470   1.402       .  A
C4465      H4472   1.082       .  S
C4466      C4467   1.414       .  A
C4467      C4468   1.405       .  A
C4467      C4474   1.516       .  S
C4468      C4469   1.401       .  A
C4468      H4473   1.084       .  S
C4469      C4470   1.412       .  A
C4470      C4471   1.517       .  S
C4471      F4475   1.385       .  S
C4471      F4476   1.383       .  S
C4471      F4477   1.383       .  S
C4474      F4478   1.383       .  S
C4474      F4479   1.381       .  S
C4474      F4480   1.385       .  S
C4481      C4482   1.406       .  A
C4481      C4486   1.407       .  A
C4481      H4488   1.082       .  S
C4482      C4483   1.422       .  A
C4483      C4484   1.410       .  A
C4483      C4490   1.519       .  S
C4484      C4485   1.406       .  A
C4484      H4489   1.083       .  S
C4485      C4486   1.422       .  A
C4486      C4487   1.518       .  S
C4487      F4491   1.385       .  S
C4487      F4492   1.379       .  S
C4487      F4493   1.382       .  S
C4490      F4494   1.382       .  S
C4490      F4495   1.381       .  S
C4490      F4496   1.382       .  S
C4497      C4498   1.403       .  A
C4497      C4502   1.410       .  A
C4497      H4504   1.083       .  S
C4498      C4499   1.422       .  A
C4499      C4500   1.412       .  A
C4499      C4506   1.519       .  S
C4500      C4501   1.406       .  A
C4500      H4505   1.083       .  S
C4501      C4502   1.423       .  A
C4502      C4503   1.516       .  S
C4503      F4507   1.386       .  S
C4503      F4508   1.379       .  S
C4503      F4509   1.383       .  S
C4506      F4510   1.383       .  S
C4506      F4511   1.383       .  S
C4506      F4512   1.385       .  S
C4513      C4514   1.405       .  A
C4513      C4518   1.406       .  A
C4513      H4520   1.081       .  S
C4514      C4515   1.425       .  A
C4515      C4516   1.410       .  A
C4515      C4522   1.522       .  S
C4516      C4517   1.405       .  A
C4516      H4521   1.083       .  S
C4517      C4518   1.423       .  A
C4518      C4519   1.524       .  S
C4519      F4523   1.384       .  S
C4519      F4524   1.383       .  S
C4519      F4525   1.383       .  S
C4522      F4526   1.381       .  S
C4522      F4527   1.383       .  S
C4522      F4528   1.384       .  S
C4529      C4530   1.404       .  A
C4529      C4534   1.410       .  A
C4529      H4536   1.080       .  S
C4530      C4531   1.431       .  A
C4531      C4532   1.414       .  A
C4531      C4538   1.524       .  S
C4532      C4533   1.407       .  A
C4532      H4537   1.082       .  S
C4533      C4534   1.431       .  A
C4534      C4535   1.525       .  S
C4535      F4539   1.384       .  S
C4535      F4540   1.383       .  S
C4535      F4541   1.383       .  S
C4538      F4542   1.384       .  S
C4538      F4543   1.384       .  S
C4538      F4544   1.384       .  S
C4545      C4546   1.403       .  A
C4545      C4550   1.401       .  A
C4545      H4552   1.079       .  S
C4546      C4547   1.423       .  A
C4547      C4548   1.404       .  A
C4547      C4554   1.522       .  S
C4548      C4549   1.407       .  A
C4548      H4553   1.082       .  S
C4549      C4550   1.429       .  A
C4550      C4551   1.527       .  S
C4551      F4555   1.385       .  S
C4551      F4556   1.380       .  S
C4551      F4557   1.383       .  S
C4554      F4558   1.379       .  S
C4554      F4559   1.383       .  S
C4554      F4560   1.385       .  S
C4561      C4562   1.406       .  A
C4561      C4566   1.410       .  A
C4561      H4568   1.083       .  S
C4562      C4563   1.423       .  A
C4563      C4564   1.407       .  A
C4563      C4570   1.515       .  S
C4564      C4565   1.404       .  A
C4564      H4569   1.083       .  S
C4565      C4566   1.422       .  A
C4566      C4567   1.519       .  S
C4567      F4571   1.385       .  S
C4567      F4572   1.382       .  S
C4567      F4573   1.379       .  S
C4570      F4574   1.384       .  S
C4570      F4575   1.384       .  S
C4570      F4576   1.385       .  S
C4577      C4578   1.409       .  A
C4577      C4582   1.412       .  A
C4577      H4584   1.081       .  S
C4578      C4579   1.430       .  A
C4579      C4580   1.410       .  A
C4579      C4586   1.524       .  S
C4580      C4581   1.408       .  A
C4580      H4585   1.081       .  S
C4581      C4582   1.430       .  A
C4582      C4583   1.525       .  S
C4583      F4587   1.385       .  S
C4583      F4588   1.383       .  S
C4583      F4589   1.383       .  S
C4586      F4590   1.383       .  S
C4586      F4591   1.384       .  S
C4586      F4592   1.385       .  S
C4593      C4594   1.400       .  A
C4593      C4598   1.406       .  A
C4593      H4600   1.084       .  S
C4594      C4595   1.414       .  A
C4595      C4596   1.408       .  A
C4595      C4602   1.517       .  S
C4596      C4597   1.403       .  A
C4596      H4601   1.083       .  S
C4597      C4598   1.415       .  A
C4598      C4599   1.516       .  S
C4599      F4603   1.384       .  S
C4599      F4604   1.384       .  S
C4599      F4605   1.382       .  S
C4602      F4606   1.383       .  S
C4602      F4607   1.383       .  S
C4602      F4608   1.383       .  S
C4609      C4610   1.403       .  A
C4609      C4614   1.410       .  A
C4609      H4616   1.085       .  S
C4611      C4612   1.414       .  A
C4611      C4618   1.520       .  S
C4612      H4617   1.083       .  S
C4613      C4614   1.424       .  A
C4614      C4615   1.517       .  S
C4615      F4621   1.380       .  S
C4618      F4622   1.382       .  S
C4625      C4626   1.405       .  A
C4625      C4630   1.411       .  A
C4625      H4632   1.083       .  S
C4627      C4628   1.411       .  A
C4627      C4634   1.522       .  S
C4628      H4633   1.083       .  S
C4629      C4630   1.421       .  A
C4630      C4631   1.519       .  S
C4631      F4637   1.381       .  S
C4634      F4638   1.383       .  S
C4641      C4642   1.407       .  A
C4641      C4646   1.409       .  A
C4641      H4648   1.083       .  S
C4643      C4644   1.412       .  A
C4643      C4650   1.520       .  S
C4644      H4649   1.083       .  S
C4645      C4646   1.424       .  A
C4646      C4647   1.521       .  S
C4647      F4653   1.381       .  S
C4650      F4654   1.383       .  S
C4657      C4658   1.405       .  A
C4657      C4662   1.410       .  A
C4657      H4664   1.083       .  S
C4659      C4660   1.415       .  A
C4659      C4666   1.522       .  S
C4660      H4665   1.083       .  S
C4661      C4662   1.424       .  A
C4662      C4663   1.521       .  S
C4663      F4667   1.385       .  S
C4663      F4669   1.382       .  S
C4666      F4670   1.383       .  S
C4666      F4672   1.385       .  S
C4673      C4674   1.409       .  A
C4673      C4678   1.407       .  A
C4673      H4680   1.081       .  S
C4675      C4676   1.405       .  A
C4675      C4682   1.526       .  S
C4676      H4681   1.080       .  S
C4677      C4678   1.424       .  A
C4678      C4679   1.524       .  S
C4679      F4683   1.385       .  S
C4679      F4685   1.383       .  S
C4682      F4686   1.384       .  S
C4682      F4688   1.385       .  S
C4689      C4690   1.402       .  A
C4689      C4694   1.404       .  A
C4689      H4696   1.083       .  S
C4691      C4692   1.409       .  A
C4691      C4698   1.523       .  S
C4692      H4697   1.083       .  S
C4693      C4694   1.420       .  A
C4694      C4695   1.521       .  S
C4695      F4699   1.385       .  S
C4695      F4701   1.382       .  S
C4698      F4702   1.384       .  S
C4698      F4704   1.385       .  S
C4705      C4706   1.406       .  A
C4705      C4710   1.406       .  A
C4705      H4712   1.082       .  S
C4707      C4708   1.406       .  A
C4707      C4714   1.525       .  S
C4708      H4713   1.081       .  S
C4709      C4710   1.425       .  A
C4710      C4711   1.521       .  S
C4711      F4717   1.381       .  S
C4714      F4718   1.384   1_545  S
C4721      C4726   1.407       .  A
C4721      H4728   1.082       .  S
C4722      C4723   1.430       .  A
C4723      C4724   1.410       .  A
C4723      C4730   1.529       .  S
C4724      C4725   1.409       .  A
C4724      H4729   1.082       .  S
C4726      C4727   1.525       .  S
C4727      F4733   1.378       .  S
C4730      F4734   1.383       .  S
C4737      C4738   1.400       .  A
C4737      C4742   1.405       .  A
C4737      H4744   1.083       .  S
C4739      C4740   1.410       .  A
C4739      C4746   1.523       .  S
C4740      H4745   1.083       .  S
C4741      C4742   1.422       .  A
C4742      C4743   1.520       .  S
C4743      F4747   1.385       .  S
C4743      F4748   1.384       .  S
C4743      F4749   1.382       .  S
C4746      F4750   1.383       .  S
C4746      F4751   1.382       .  S
C4746      F4752   1.384       .  S
C4753      C4754   1.404       .  A
C4753      C4758   1.405       .  A
C4753      H4760   1.083       .  S
C4755      C4756   1.409       .  A
C4755      C4762   1.521       .  S
C4756      H4761   1.083       .  S
C4757      C4758   1.418       .  A
C4758      C4759   1.518       .  S
C4759      F4763   1.385       .  S
C4759      F4764   1.382       .  S
C4759      F4765   1.384       .  S
C4762      F4766   1.380       .  S
C4762      F4767   1.383       .  S
C4762      F4768   1.386       .  S
C4769      C4770   1.407       .  A
C4769      C4774   1.403       .  A
C4769      H4776   1.082       .  S
C4771      C4772   1.401       .  A
C4771      C4778   1.511       .  S
C4772      H4777   1.082       .  S
C4773      C4774   1.426       .  A
C4774      C4775   1.520       .  S
C4775      F4781   1.385       .  S
C4778      F4782   1.384       .  S
C4785      C4786   1.405       .  A
C4785      C4790   1.407       .  A
C4785      H4792   1.084       .  S
C4787      C4788   1.404       .  A
C4787      C4794   1.520       .  S
C4788      H4793   1.084       .  S
C4789      C4790   1.412       .  A
C4790      C4791   1.518       .  S
C4791      F4795   1.383       .  S
C4791      F4796   1.385       .  S
C4791      F4797   1.379       .  S
C4794      F4798   1.382       .  S
C4794      F4799   1.382       .  S
C4794      F4800   1.385       .  S
