geometry optimzed in LAMMPS
_audit_creation_date              2020-11-30 
_audit_creation_method            'lammps2cif' 
_symmetry_space_group_name_H-M    'P1' 
_symmetry_Int_Tables_number       1 
_symmetry_cell_setting            triclinic 
loop_ 
_symmetry_equiv_pos_as_xyz 
  x,y,z 
_cell_length_a                    44.10937174 
_cell_length_b                    44.09521438226354 
_cell_length_c                    35.579141635907035 
_cell_angle_alpha                 90.38307325367498 
_cell_angle_beta                  89.98435943669818 
_cell_angle_gamma                 121.0735678555122 
loop_ 
_atom_site_label 
_atom_site_type_symbol 
_atom_site_fract_x 
_atom_site_fract_y 
_atom_site_fract_z 
_atom_site_charge 
C1          C  0.51989878  0.33324032  0.20954462     0.87000
C2          C  0.55696521  0.36655958  0.21409079    -0.53300
C3          C  0.57640527  0.36578247  0.24367183     0.09900
C4          C  0.55527323  0.33244030  0.26816131     0.20900
C5          C  0.52633635  0.30213857  0.20966725    -0.54000
C6          C  0.54543379  0.30182284  0.23997855     0.10000
C7          C  0.50147586  0.33035839  0.24672217    -0.53500
C8          C  0.51964235  0.33008093  0.27770172     0.10600
H9          H  0.56770447  0.38816636  0.19418771     0.15100
H10         H  0.57022456  0.33202240  0.29306079     0.00800
H11         H  0.51758120  0.28283715  0.18694083     0.15400
H12         H  0.47632017  0.32921045  0.24841763     0.15200
C13         C  0.32055287  0.53560346  0.29631475     0.87000
C14         C  0.35512362  0.57172184  0.29493768    -0.53300
C15         C  0.35701872  0.59270497  0.26589978     0.09900
C16         C  0.32456436  0.57455825  0.23942082     0.20900
C17         C  0.29092480  0.54409668  0.29538314    -0.54000
C18         C  0.29319498  0.56533458  0.26607269     0.10000
C19         C  0.31815266  0.51836846  0.25828662    -0.53500
C20         C  0.32028490  0.53837744  0.22822633     0.10600
H21         H  0.37528650  0.58092670  0.31673030     0.15100
H22         H  0.32659436  0.59130382  0.21524810     0.00800
H23         H  0.27034468  0.53436508  0.31649689     0.15400
H24         H  0.31565554  0.49264905  0.25529595     0.15200
C25         C  0.78747909  0.47767571  0.21762161     0.87000
C26         C  0.78102588  0.43998120  0.22211723    -0.53300
C27         C  0.76318044  0.42284304  0.25405670     0.09900
C28         C  0.75381344  0.44586844  0.27873008     0.20900
C29         C  0.75040523  0.47259111  0.22051254    -0.54000
C30         C  0.73154556  0.45437323  0.25183573     0.10000
C31         C  0.80640999  0.49750953  0.25332930    -0.53500
C32         C  0.78903756  0.48135285  0.28545748     0.10600
H33         H  0.78670886  0.42684686  0.19975577     0.15100
H34         H  0.74067617  0.43321074  0.30543965     0.00800
H35         H  0.73887337  0.47952764  0.19763146     0.15400
H36         H  0.83165734  0.52233771  0.25318579     0.15200
C37         C  0.65921825  0.21159932  0.21853563     0.87000
C38         C  0.62285465  0.20774072  0.22326191    -0.53300
C39         C  0.61970421  0.22472698  0.25400082     0.09900
C40         C  0.65298676  0.24089308  0.27966535     0.20900
C41         C  0.68587417  0.25174033  0.22148712    -0.54000
C42         C  0.68310782  0.26776299  0.25367252     0.10000
C43         C  0.66470161  0.19625623  0.25427633    -0.53500
C44         C  0.66114632  0.21096714  0.28644711     0.10600
H45         H  0.60314189  0.19713678  0.20093417     0.15100
H46         H  0.64987386  0.25164763  0.30654298     0.00800
H47         H  0.70437031  0.26624917  0.19908227     0.15400
H48         H  0.66985366  0.17467489  0.25426748     0.15200
C49         C  0.19624665  0.67379793  0.29140291     0.87000
C50         C  0.19567456  0.63900982  0.28474604    -0.53300
C51         C  0.21477459  0.63902710  0.25436997     0.09900
C52         C  0.22956904  0.67334323  0.23118750     0.20900
C53         C  0.23573426  0.70266323  0.29140368    -0.54000
C54         C  0.25375923  0.70277673  0.25984154     0.10000
C55         C  0.18099088  0.67913196  0.25555237    -0.53500
C56         C  0.19771246  0.67838825  0.22370517     0.10600
H57         H  0.18480877  0.61772572  0.30512118     0.15100
H58         H  0.24294436  0.67315595  0.20488916     0.00800
H59         H  0.24854419  0.71901479  0.31598382     0.15400
H60         H  0.15770567  0.68156170  0.25531561     0.15200
C61         C  0.46557443  0.80115089  0.29432670     0.87000
C62         C  0.42678769  0.79182899  0.29037968    -0.53300
C63         C  0.40922850  0.77253997  0.25880193     0.09900
C64         C  0.43373220  0.76550697  0.23346328     0.20900
C65         C  0.46337777  0.76548357  0.29130711    -0.54000
C66         C  0.44570703  0.74587853  0.26008391     0.10000
C67         C  0.48365885  0.82044592  0.25845276    -0.53500
C68         C  0.46754157  0.80223284  0.22635805     0.10600
H69         H  0.41370252  0.79781346  0.31251278     0.15100
H70         H  0.42184722  0.75138582  0.20678200     0.00800
H71         H  0.47111249  0.75476644  0.31431202     0.15400
H72         H  0.50745436  0.84657060  0.25849726     0.15200
C73         C  0.66902461  0.48284893  0.79764849     0.87000
C74         C  0.63633877  0.44513457  0.79585680    -0.53300
C75         C  0.63601940  0.42460277  0.76672996     0.09900
C76         C  0.66791873  0.44528809  0.73994516     0.20900
C77         C  0.70093832  0.47782525  0.79591769    -0.54000
C78         C  0.70019121  0.45733549  0.76631585     0.10000
C79         C  0.66905499  0.49912462  0.76009540    -0.53500
C80         C  0.66838804  0.47991242  0.72948438     0.10600
H81         H  0.61538216  0.43535577  0.81654041     0.15100
H82         H  0.66773439  0.42949874  0.71541162     0.00800
H83         H  0.72098775  0.48746495  0.81784271     0.15400
H84         H  0.66903195  0.52366265  0.75793147     0.15200
C85         C  0.52030695  0.21238307  0.79074173     0.87000
C86         C  0.55766465  0.21798082  0.78620879    -0.53300
C87         C  0.57556473  0.23653273  0.75489870     0.09900
C88         C  0.55357415  0.24745709  0.73084539     0.20900
C89         C  0.52651655  0.25000783  0.78951278    -0.54000
C90         C  0.54529951  0.26949060  0.75868304     0.10000
C91         C  0.50081803  0.19495337  0.75443903    -0.53500
C92         C  0.51781883  0.21298835  0.72298466     0.10600
H93         H  0.57001776  0.21116381  0.80823365     0.15100
H94         H  0.56677999  0.26102249  0.70453513     0.00800
H95         H  0.51931624  0.26106015  0.81278645     0.15400
H96         H  0.47581087  0.16988719  0.75364861     0.15200
C97         C  0.19814523  0.53328286  0.70915738     0.87000
C98         C  0.20025635  0.56910897  0.71428286    -0.53300
C99         C  0.21743065  0.58764836  0.74619308     0.09900
C100        C  0.22876502  0.56681456  0.77142144     0.20900
C101        C  0.23698383  0.54275209  0.71295993    -0.54000
C102        C  0.25349633  0.56071268  0.74563240     0.10000
C103        C  0.17975863  0.51248981  0.74463192    -0.53500
C104        C  0.19536392  0.52984210  0.77734151     0.10600
H105        H  0.19200769  0.58053589  0.69253688     0.15100
H106        H  0.24108002  0.58013248  0.79842920     0.00800
H107        H  0.25079366  0.53854260  0.69016540     0.15400
H108        H  0.15570797  0.48659265  0.74390549     0.15200
C109        C  0.46295891  0.68009496  0.71652034     0.87000
C110        C  0.42562969  0.64749144  0.72300751    -0.53300
C111        C  0.40830037  0.64949854  0.75427423     0.09900
C112        C  0.43180397  0.68429620  0.77682690     0.20900
C113        C  0.45710777  0.71147882  0.71652065    -0.54000
C114        C  0.43991220  0.71340715  0.74767437     0.10000
C115        C  0.48345283  0.68421288  0.75235237    -0.53500
C116        C  0.46755937  0.68641831  0.78409108     0.10600
H117        H  0.41294645  0.62631366  0.70239816     0.15100
H118        H  0.42045718  0.68696576  0.80339339     0.00800
H119        H  0.46281979  0.72847754  0.69232539     0.15400
H120        H  0.50834180  0.68472315  0.75260661     0.15200
C121        C  0.78535299  0.33715212  0.79434045     0.87000
C122        C  0.78713530  0.37287470  0.79188031    -0.53300
C123        C  0.77166984  0.37701375  0.76060024     0.09900
C124        C  0.75753760  0.34508881  0.73326085     0.20900
C125        C  0.74568552  0.30930531  0.78928734    -0.54000
C126        C  0.73038745  0.31329962  0.75722760     0.10000
C127        C  0.80284259  0.33475463  0.75855190    -0.53500
C128        C  0.78859870  0.33886292  0.72650008     0.10600
H129        H  0.79634246  0.39182022  0.81500248     0.15100
H130        H  0.74765601  0.34891839  0.70636382     0.00800
H131        H  0.73083544  0.28956707  0.81052650     0.15400
H132        H  0.82511270  0.33067719  0.75862661     0.15200
O133        O  0.61150270  0.13666014  0.43505080    -0.57300
C134        C  0.66326632  0.19698969  0.32355163     0.75300
O135        O  0.69398897  0.16404758  0.45039737    -0.58500
C136        C  0.61577560  0.16575391  0.44689032     0.75300
C137        C  0.63762900  0.08944273  0.37453035     0.77700
Cd138      Cd  0.66267571  0.16270624  0.39353805     1.37500
O139        O  0.64848887  0.20003303  0.35255287    -0.57300
O140        O  0.61745597  0.10192922  0.37612927    -0.56100
C141        C  0.72186710  0.19350618  0.44512187     0.77600
O142        O  0.67027693  0.11130203  0.38018176    -0.58500
O143        O  0.67886225  0.17980121  0.32744042    -0.56900
O144        O  0.64034639  0.19347781  0.43177798    -0.56900
O145        O  0.72479462  0.20727970  0.41314743    -0.56100
O146        O  0.86359220  0.40019791  0.58753955    -0.57300
C147        C  0.80333061  0.33858464  0.68924118     0.75300
O148        O  0.79211474  0.28123104  0.60001777    -0.58500
C149        C  0.83715250  0.39173454  0.56670116     0.75300
C150        C  0.91052988  0.36668174  0.63292713     0.77700
Cd151      Cd  0.83742473  0.34247176  0.61830109     1.37500
O152        O  0.79596734  0.34967772  0.66002435    -0.57300
O153        O  0.89762529  0.38635644  0.63642438    -0.56100
C154        C  0.80590232  0.28197144  0.56852047     0.77600
O155        O  0.88887577  0.33458003  0.62426213    -0.58500
O156        O  0.82489689  0.32799026  0.68518057    -0.56900
O157        O  0.81009250  0.36159765  0.57233719    -0.56900
O158        O  0.83594533  0.30898983  0.56250318    -0.56100
O159        O  0.80973269  0.47258157  0.42777914    -0.57300
C160        C  0.80412933  0.49715902  0.32267463     0.75300
O161        O  0.83758104  0.55920387  0.45071145    -0.58500
C162        C  0.83735004  0.47792320  0.44454529     0.75300
C163        C  0.91271926  0.57510830  0.37256894     0.77700
Cd164      Cd  0.83945907  0.52884845  0.39337824     1.37500
O165        O  0.79583544  0.47895682  0.35230833    -0.57300
O166        O  0.89709633  0.54171962  0.36990182    -0.56100
C167        C  0.80878688  0.55772643  0.44384927     0.77600
O168        O  0.89402472  0.58762612  0.38379591    -0.58500
O169        O  0.82707879  0.52978684  0.32622310    -0.56900
O170        O  0.86592408  0.50541295  0.43518637    -0.56900
O171        O  0.79618746  0.54693072  0.41119146    -0.56100
O172        O  0.60674963  0.49259105  0.57904505    -0.57300
C173        C  0.66719127  0.49246073  0.69101654     0.75300
O174        O  0.68923600  0.54652406  0.55855168    -0.58500
C175        C  0.60882375  0.46625850  0.56859457     0.75300
C176        C  0.63410375  0.56782084  0.63664770     0.77700
Cd177      Cd  0.65988427  0.52011261  0.61864097     1.37500
O178        O  0.65359589  0.47193231  0.66300816    -0.57300
O179        O  0.61542638  0.53454862  0.64038877    -0.56100
C180        C  0.71896050  0.55018298  0.56555681     0.77600
O181        O  0.66574489  0.57967254  0.62617506    -0.58500
O182        O  0.67845364  0.52485418  0.68498935    -0.56900
O183        O  0.63271986  0.46293151  0.58419392    -0.56900
O184        O  0.72288234  0.54252060  0.59877311    -0.56100
O185        O  0.52371989  0.19154599  0.57305792    -0.57300
C186        C  0.50307839  0.19827434  0.68546442     0.75300
O187        O  0.44230169  0.15898252  0.55676036    -0.58500
C188        C  0.52694493  0.16504475  0.56701428     0.75300
C189        C  0.42707944  0.08667870  0.63574321     0.77700
Cd190      Cd  0.47284174  0.16079409  0.61543794     1.37500
O191        O  0.52249736  0.20346355  0.65724466    -0.57300
O192        O  0.46049918  0.10232807  0.63504173    -0.56100
C193        C  0.44208755  0.18722674  0.56216368     0.77600
O194        O  0.41407431  0.10568682  0.62786195    -0.58500
O195        O  0.47010217  0.17799327  0.68050473    -0.56900
O196        O  0.50641800  0.13741837  0.58526327    -0.56900
O197        O  0.45271104  0.20154962  0.59424640    -0.56100
O198        O  0.52103275  0.34898314  0.43618636    -0.57300
C199        C  0.50534983  0.32854905  0.31596226     0.75300
O200        O  0.45589611  0.26964444  0.40781361    -0.58500
C201        C  0.52465287  0.37895924  0.44258871     0.75300
C202        C  0.42746489  0.35677552  0.37182737     0.77700
Cd203      Cd  0.47433112  0.33084828  0.38816275     1.37500
O204        O  0.52484618  0.34274822  0.34451166    -0.57300
O205        O  0.46039096  0.37686282  0.37715444    -0.56100
C206        C  0.44221325  0.27079330  0.43873042     0.77600
O207        O  0.41564765  0.32376845  0.37285975    -0.58500
O208        O  0.47240182  0.31415660  0.32136011    -0.56900
O209        O  0.50732852  0.38749013  0.42132829    -0.56900
O210        O  0.43967212  0.29777107  0.44381361    -0.56100
O211        O  0.46232547  0.85868731  0.41676871    -0.57300
C212        C  0.48413954  0.82198282  0.32955785     0.75300
O213        O  0.57859019  0.91827436  0.39062175    -0.58500
C214        C  0.47375686  0.87430914  0.44809028     0.75300
C215        C  0.53048344  0.82245740  0.45128799     0.77700
Cd216      Cd  0.51793657  0.86363351  0.39723178     1.37500
O217        O  0.46871978  0.83119616  0.35279342    -0.57300
O218        O  0.50071150  0.81878442  0.44433633    -0.56100
C219        C  0.56692204  0.93722583  0.37822438     0.77600
O220        O  0.55575442  0.84381844  0.43031732    -0.58500
O221        O  0.51594827  0.83161867  0.33741145    -0.56900
O222        O  0.50616531  0.88626772  0.45504576    -0.56900
O223        O  0.53386529  0.92145958  0.37312635    -0.56100
O224        O  0.16461658  0.64813550  0.34912779    -0.57300
C225        C  0.12232136  0.61476900  0.44552094     0.75300
O226        O  0.15873865  0.72764548  0.42465130    -0.58500
C227        C  0.17671803  0.67354652  0.32634042     0.75300
C228        C  0.06449169  0.64909035  0.37183311     0.77700
Cd229      Cd  0.13597849  0.66872151  0.39221705     1.37500
O230        O  0.12671564  0.61091152  0.41105476    -0.57300
O231        O  0.07666157  0.62899620  0.36700612    -0.56100
C232        C  0.18082622  0.72453765  0.44464751     0.77600
O233        O  0.08622107  0.67986501  0.38421734    -0.58500
O234        O  0.12162997  0.64216868  0.45460377    -0.56900
O235        O  0.17099694  0.69821532  0.33430334    -0.56900
O236        O  0.18393420  0.69817427  0.43730612    -0.56100
O237        O  0.34765522  0.83374730  0.66018161    -0.57300
C238        C  0.37831792  0.87049910  0.56174541     0.75300
O239        O  0.27640850  0.84719812  0.57207978    -0.58500
C240        C  0.32231728  0.82165609  0.68327176     0.75300
C241        C  0.35332976  0.93418266  0.63988164     0.77700
Cd242      Cd  0.32658313  0.86121262  0.61671302     1.37500
O243        O  0.37884802  0.86021406  0.59472948    -0.57300
O244        O  0.37243985  0.92134899  0.63258359    -0.56100
C245        C  0.26711967  0.81488580  0.56822731     0.77600
O246        O  0.32012781  0.91265553  0.63791288    -0.58500
O247        O  0.35377627  0.87637536  0.55433378    -0.56900
O248        O  0.29794199  0.82800139  0.67611378    -0.56900
O249        O  0.28308156  0.80447622  0.58908965    -0.56100
O250        O  0.32847062  0.52801194  0.36213808    -0.57300
C251        C  0.37592603  0.52562335  0.44597725     0.75300
O252        O  0.26329435  0.46032805  0.40513669    -0.58500
C253        C  0.31935787  0.51412922  0.32975169     0.75300
C254        C  0.35136704  0.43063933  0.37228275     0.77700
Cd255      Cd  0.32478330  0.47635707  0.39298703     1.37500
O256        O  0.38348597  0.52740481  0.41145050    -0.57300
O257        O  0.36974968  0.46398374  0.37286959    -0.56100
C258        C  0.26153813  0.44828536  0.43782526     0.77600
O259        O  0.31889275  0.41720260  0.38019029    -0.58500
O260        O  0.34503051  0.50185495  0.45500763    -0.56900
O261        O  0.31069313  0.48195741  0.32694197    -0.56900
O262        O  0.28742162  0.44524232  0.44759253    -0.56100
O263        O  0.46680486  0.65208493  0.65929568    -0.57300
C264        C  0.47247452  0.62454170  0.55699568     0.75300
O265        O  0.55506820  0.72822199  0.57774033    -0.58500
C266        C  0.48162902  0.67800407  0.68189665     0.75300
C267        C  0.56349181  0.64811377  0.63415486     0.77700
Cd268      Cd  0.51598402  0.67329141  0.61468147     1.37500
O269        O  0.46211030  0.62195478  0.59060008    -0.57300
O270        O  0.53024058  0.62967619  0.63730900    -0.56100
C271        C  0.53036248  0.73426122  0.57126577     0.77600
O272        O  0.57582527  0.67990331  0.62407498    -0.58500
O273        O  0.50368910  0.64925405  0.55025292    -0.56900
O274        O  0.51312853  0.70193155  0.67404230    -0.56900
O275        O  0.50128599  0.71406437  0.58739434    -0.56100
O276        O  0.15592916  0.53471961  0.57836060    -0.57300
C277        C  0.17923827  0.51392077  0.67296849     0.75300
O278        O  0.07967109  0.41813521  0.61227292    -0.58500
C279        C  0.13053204  0.52339458  0.55505707     0.75300
C280        C  0.17149770  0.45380632  0.55176257     0.77700
Cd281      Cd  0.13694232  0.47670341  0.60558616     1.37500
O282        O  0.16887544  0.52782275  0.64914831    -0.57300
O283        O  0.16714412  0.44327648  0.58553056    -0.56100
C284        C  0.06280957  0.43159054  0.62631252     0.77600
O285        O  0.15987206  0.47379193  0.54398715    -0.58500
O286        O  0.17158392  0.48260382  0.66526752    -0.56900
O287        O  0.10819366  0.49048149  0.55547195    -0.56900
O288        O  0.08102489  0.46434339  0.63331063    -0.56100
C289        C  0.32181725  0.80111132  0.71740145     0.87000
C290        C  0.35545592  0.79899474  0.72110115    -0.53300
C291        C  0.35583846  0.78030078  0.75127358     0.09900
C292        C  0.32247107  0.76591608  0.77589469     0.20900
C293        C  0.29124163  0.76243040  0.71792637    -0.54000
C294        C  0.29211127  0.74309670  0.74762811     0.10000
C295        C  0.31886640  0.81664517  0.75447401    -0.53500
C296        C  0.31914215  0.79869187  0.78543689     0.10600
H297        H  0.37579059  0.80835967  0.69963209     0.15100
H298        H  0.32306104  0.75118615  0.80080648     0.00800
H299        H  0.27200953  0.75089974  0.69527406     0.15400
H300        H  0.31753625  0.84053539  0.75609628     0.15200
O301        O  0.60130956  0.12865122  0.07816262    -0.57300
C302        C  0.66136936  0.19436471  0.18244817     0.75300
O303        O  0.66386258  0.10355212  0.12089937    -0.58500
C304        C  0.60726069  0.15645371  0.06151693     0.75300
C305        C  0.71861202  0.18635418  0.06396080     0.77700
Cd306      Cd  0.65748507  0.15622104  0.11333790     1.37500
O307        O  0.65225406  0.20086531  0.15127994    -0.57300
O308        O  0.72055533  0.19833636  0.09692364    -0.56100
C309        C  0.63274036  0.08316046  0.13299389     0.77600
O310        O  0.68970999  0.15859328  0.05570088    -0.58500
O311        O  0.67071768  0.17161414  0.18159779    -0.56900
O312        O  0.63536789  0.18464348  0.07082563    -0.56900
O313        O  0.61392679  0.09698044  0.13716313    -0.56100
O314        O  0.81461856  0.35688384  0.93756506    -0.57300
C315        C  0.80294555  0.33385827  0.82949965     0.75300
O316        O  0.89666690  0.32830483  0.89071183    -0.58500
C317        C  0.84286494  0.38499615  0.94690500     0.75300
C318        C  0.81088504  0.27513784  0.94640862     0.77700
Cd319      Cd  0.84316278  0.33456611  0.89504586     1.37500
O320        O  0.81602398  0.35823128  0.85398859    -0.57300
O321        O  0.83702763  0.30516394  0.95510704    -0.56100
C322        C  0.91616395  0.35716741  0.87378796     0.77600
O323        O  0.80113025  0.27122765  0.91225763    -0.58500
O324        O  0.80715145  0.30788969  0.83543011    -0.56900
O325        O  0.87087499  0.38994781  0.93144184    -0.56900
O326        O  0.90107306  0.37366942  0.86408781    -0.56100
O327        O  0.87320429  0.50753826  0.07037740    -0.57300
C328        C  0.80757853  0.49621305  0.18235959     0.75300
O329        O  0.90443304  0.58887969  0.12757065    -0.58500
C330        C  0.84443411  0.47953206  0.06220771     0.75300
C331        C  0.81718765  0.55919753  0.06530250     0.77700
Cd332      Cd  0.84834960  0.53084060  0.11552857     1.37500
O333        O  0.81723898  0.48114450  0.15895926    -0.57300
O334        O  0.84537065  0.55969513  0.05740793    -0.56100
C335        C  0.92151318  0.57515373  0.14015723     0.77600
O336        O  0.80540636  0.54902791  0.09815576    -0.58500
O337        O  0.81646878  0.52785497  0.17494582    -0.56900
O338        O  0.81740093  0.47458828  0.07993109    -0.56900
O339        O  0.90393949  0.54192263  0.14356709    -0.56100
O340        O  0.63647804  0.48325091  0.93288454    -0.57300
C341        C  0.66906195  0.50369096  0.83174630     0.75300
O342        O  0.67200034  0.60030421  0.89243515    -0.58500
C343        C  0.61320612  0.48795363  0.94797309     0.75300
C344        C  0.72628944  0.56307807  0.95026677     0.77700
Cd345      Cd  0.66647177  0.54019734  0.89910613     1.37500
O346        O  0.64594936  0.48920192  0.85712033    -0.57300
O347        O  0.72945252  0.56001122  0.91527512    -0.56100
C348        C  0.64108133  0.58764959  0.87902087     0.77600
O349        O  0.69703841  0.55916744  0.96041779    -0.58500
O350        O  0.69196954  0.53617780  0.83692565    -0.56900
O351        O  0.61427951  0.51626438  0.93945819    -0.56900
O352        O  0.62433380  0.55469061  0.87282451    -0.56100
O353        O  0.51405029  0.17823573  0.84655584    -0.57300
C354        C  0.51538610  0.14935419  0.94097418     0.75300
O355        O  0.44213185  0.18885901  0.90722651    -0.58500
C356        C  0.50070556  0.19096210  0.82493925     0.75300
C357        C  0.41374878  0.07444798  0.86813706     0.77700
Cd358      Cd  0.46401119  0.14817561  0.89010300     1.37500
O359        O  0.52016352  0.17709667  0.92515436    -0.57300
O360        O  0.44597194  0.09093877  0.85870988    -0.56100
C361        C  0.44116718  0.18354099  0.94231729     0.77600
O362        O  0.40347190  0.09292355  0.88504915    -0.58500
O363        O  0.48780461  0.12072131  0.93137128    -0.56900
O364        O  0.46965345  0.18368950  0.83295690    -0.56900
O365        O  0.44766213  0.16001001  0.95211704    -0.56100
O366        O  0.51392817  0.35937046  0.15202746    -0.57300
C367        C  0.51497855  0.38754520  0.05594077     0.75300
O368        O  0.44338409  0.30938714  0.04556945    -0.58500
C369        C  0.49991895  0.33403078  0.17505862     0.75300
C370        C  0.41881825  0.36638677  0.12779911     0.77700
Cd371      Cd  0.46387164  0.33800828  0.10772553     1.37500
O372        O  0.48912191  0.38982393  0.06747174    -0.57300
O373        O  0.45132128  0.38154099  0.13595401    -0.56100
C374        C  0.43909525  0.27963224  0.05373725     0.77600
O375        O  0.40557766  0.33563159  0.11353639    -0.58500
O376        O  0.51846261  0.36326671  0.07013425    -0.56900
O377        O  0.46850586  0.30958943  0.16733624    -0.56900
O378        O  0.44184206  0.27489209  0.08843460    -0.56100
O379        O  0.17150953  0.64056442  0.08327463    -0.57300
C380        C  0.18282010  0.67839851  0.18632213     0.75300
O381        O  0.15015684  0.70396771  0.05867167    -0.58500
C382        C  0.14459974  0.62227114  0.06257640     0.75300
C383        C  0.07393754  0.64801226  0.13787223     0.77700
Cd384      Cd  0.14626797  0.67271936  0.11613466     1.37500
O385        O  0.19024118  0.66754293  0.15671302    -0.57300
O386        O  0.08713327  0.62840571  0.13835132    -0.56100
C387        C  0.17751265  0.73311999  0.06677537     0.77600
O388        O  0.09490351  0.68002008  0.12898406    -0.58500
O389        O  0.16023112  0.68774556  0.18282773    -0.56900
O390        O  0.11818688  0.62529159  0.06942021    -0.56900
O391        O  0.18905160  0.73599571  0.09998807    -0.56100
O392        O  0.35217444  0.82441486  0.93221515    -0.57300
C393        C  0.31896325  0.81281451  0.82344765     0.75300
O394        O  0.26383279  0.80755059  0.91403102    -0.58500
C395        C  0.37781878  0.85349815  0.94417410     0.75300
C396        C  0.34630639  0.92237418  0.87228287     0.77700
Cd397      Cd  0.32548886  0.85050144  0.89391261     1.37500
O398        O  0.33282950  0.80777108  0.85198895    -0.57300
O399        O  0.36593371  0.90953628  0.86744130    -0.56100
C400        C  0.26734689  0.81962881  0.94719493     0.77600
O401        O  0.31613965  0.90156234  0.88636096    -0.58500
O402        O  0.30659943  0.83283839  0.82838221    -0.56900
O403        O  0.38125695  0.88118802  0.92961562    -0.56900
O404        O  0.29654155  0.84741363  0.95430664    -0.56100
O405        O  0.46214618  0.82716387  0.07836056    -0.57300
C406        C  0.48268405  0.81789821  0.18916101     0.75300
O407        O  0.54134149  0.81938591  0.10222803    -0.58500
C408        C  0.46252038  0.85502729  0.06927423     0.75300
C409        C  0.56214614  0.93041777  0.13637254     0.77700
Cd410      Cd  0.51410546  0.85600637  0.11942051     1.37500
O411        O  0.46492362  0.80819554  0.15896903    -0.57300
O412        O  0.52965925  0.91424773  0.14495244    -0.56100
C413        C  0.54542910  0.82835479  0.06794681     0.77600
O414        O  0.57329304  0.91145918  0.12235220    -0.58500
O415        O  0.51444546  0.84311082  0.18635531    -0.56900
O416        O  0.48498404  0.88318212  0.08601201    -0.56900
O417        O  0.53803745  0.85155554  0.05961638    -0.56100
O418        O  0.46548973  0.68042888  0.85139675    -0.57300
C419        C  0.45860419  0.63577688  0.94197088     0.75300
O420        O  0.57246259  0.69062917  0.87915242    -0.58500
C421        C  0.48331553  0.68846039  0.82150182     0.75300
C422        C  0.54626565  0.74408211  0.94494016     0.77700
Cd423      Cd  0.51373698  0.68482635  0.89289294     1.37500
O424        O  0.47787314  0.62763567  0.92343880    -0.57300
O425        O  0.53403990  0.74615409  0.91347312    -0.56100
C426        C  0.55992541  0.65748788  0.87686475     0.77600
O427        O  0.54714962  0.71624861  0.95014314    -0.58500
O428        O  0.46319816  0.66603133  0.93554590    -0.56900
O429        O  0.51528101  0.69683791  0.82501865    -0.56900
O430        O  0.52679856  0.63809222  0.88120875    -0.56100
O431        O  0.34379632  0.55083738  0.07717925    -0.57300
C432        C  0.31959823  0.52534987  0.18947295     0.75300
O433        O  0.29118230  0.46715171  0.05812753    -0.58500
C434        C  0.37049651  0.55050098  0.06478452     0.75300
C435        C  0.35136982  0.45086002  0.12970532     0.77700
Cd436      Cd  0.32314286  0.49723756  0.11603429     1.37500
O437        O  0.33257596  0.54572868  0.16162441    -0.57300
O438        O  0.36956162  0.48420246  0.13339875    -0.56100
C439        C  0.26281476  0.46666832  0.06446172     0.77600
O440        O  0.31908108  0.43825845  0.12109971    -0.58500
O441        O  0.30701794  0.49272134  0.18284811    -0.56900
O442        O  0.37674050  0.52812321  0.07914525    -0.56900
O443        O  0.26027943  0.47691803  0.09709845    -0.56100
O444        O  0.18324827  0.53439376  0.84252495    -0.57300
C445        C  0.14709266  0.53712183  0.93862126     0.75300
O446        O  0.08958759  0.42523438  0.87677918    -0.58500
C447        C  0.17961324  0.51488484  0.81461903     0.75300
C448        C  0.17261286  0.45960432  0.94223060     0.77700
Cd449      Cd  0.14330900  0.48531924  0.88619466     1.37500
O450        O  0.11836572  0.51473673  0.92271275    -0.57300
O451        O  0.18737803  0.47025677  0.91050180    -0.56100
C452        C  0.06912164  0.43624808  0.86761486     0.77600
O453        O  0.14239854  0.45591701  0.94532684    -0.58500
O454        O  0.17469896  0.53818114  0.92697517    -0.56900
O455        O  0.16065472  0.48183256  0.81998653    -0.56900
O456        O  0.08331730  0.46950980  0.86514219    -0.56100
C457        C  0.23562045  0.45745018  0.03431114     0.00300
C458        C  0.20696489  0.46214625  0.04151240    -0.11500
C459        C  0.18459011  0.46051133  0.01243785     0.02600
C460        C  0.19085626  0.45445880  0.97476696     0.00300
C461        C  0.21803663  0.44754234  0.96792382    -0.11500
C462        C  0.23993461  0.44842732  0.99709970     0.02500
H463        H  0.20291685  0.46877936  0.06969879     0.15400
H464        H  0.22282863  0.44229766  0.93940300     0.15400
C465        C  0.26711690  0.44079895  0.98739721     0.37100
C466        C  0.15706334  0.46769740  0.02208534     0.37000
N467        N  0.28873572  0.43450028  0.97941036    -0.43200
N468        N  0.13508634  0.47346889  0.03012511    -0.43200
C469        C  0.43352524  0.61226989  0.97114287     0.00300
C470        C  0.41603678  0.62495209  0.99359341    -0.11500
C471        C  0.39574388  0.60585051  0.02465285     0.02600
C472        C  0.39214951  0.57296734  0.03332931     0.00300
C473        C  0.40866344  0.55983750  0.01027944    -0.11500
C474        C  0.42924359  0.57897445  0.97964867     0.02500
H475        H  0.41930965  0.65066064  0.98780528     0.15400
H476        H  0.40556011  0.53423802  0.01627239     0.15400
C477        C  0.44626863  0.56388183  0.95841302     0.37100
C478        C  0.38110993  0.62179383  0.04841031     0.37000
N479        N  0.46004137  0.55174986  0.94170680    -0.43200
N480        N  0.36988969  0.63501434  0.06752884    -0.43200
C481        C  0.55530666  0.81133099  0.03778866     0.00300
C482        C  0.55680111  0.82286316  0.00063239    -0.11500
C483        C  0.55652184  0.80287092  0.96977047     0.02600
C484        C  0.55570103  0.77080393  0.97554772     0.00300
C485        C  0.55855065  0.76146581  0.01264203    -0.11500
C486        C  0.55804480  0.78113233  0.04364250     0.02500
H487        H  0.55570802  0.84645219  0.99537222     0.15400
H488        H  0.55855829  0.73729843  0.01769712     0.15400
C489        C  0.55809776  0.76820122  0.08080480     0.37100
C490        C  0.55479975  0.81499198  0.93266328     0.37000
N491        N  0.55810920  0.75750385  0.11042102    -0.43200
N492        N  0.55309456  0.82458438  0.90297199    -0.43200
C493        C  0.43949619  0.85501552  0.03899194     0.00300
C494        C  0.45148898  0.88577100  0.01750134    -0.11500
C495        C  0.43260497  0.88587968  0.98585902     0.02600
C496        C  0.40077985  0.85468691  0.97533627     0.00300
C497        C  0.38865109  0.82416953  0.99726834    -0.11500
C498        C  0.40746055  0.82412144  0.02884361     0.02500
H499        H  0.47630324  0.90959626  0.02476905     0.15400
H500        H  0.36383396  0.80025225  0.99025664     0.15400
C501        C  0.39263245  0.79227808  0.05097564     0.37100
C502        C  0.44703908  0.91809762  0.96438407     0.37000
N503        N  0.38080176  0.76686814  0.06887845    -0.43200
N504        N  0.45857778  0.94386842  0.94711374    -0.43200
C505        C  0.14444223  0.59961942  0.03121308     0.00300
C506        C  0.17230104  0.59296371  0.02843346    -0.11500
C507        C  0.17393614  0.57290316  0.99856865     0.02600
C508        C  0.14779742  0.55984985  0.96995602     0.00300
C509        C  0.11992099  0.56629033  0.97283957    -0.11500
C510        C  0.11786204  0.58569797  0.00295089     0.02500
H511        H  0.19262667  0.60295237  0.05000273     0.15400
H512        H  0.09942390  0.55597471  0.95143034     0.15400
C513        C  0.08811782  0.59090769  0.00350132     0.37100
C514        C  0.20141104  0.56429978  0.99948030     0.37000
N515        N  0.06412200  0.59483230  0.00378828    -0.43200
N516        N  0.22318263  0.55709248  0.00057731    -0.49200
C517        C  0.19636299  0.76027954  0.03732223     0.00300
C518        C  0.18568070  0.75040981  0.99974558    -0.11500
C519        C  0.20720935  0.77030468  0.96982775     0.02600
C520        C  0.24019245  0.80135501  0.97705581     0.00300
C521        C  0.24903705  0.81327198  0.01460265    -0.11500
C522        C  0.22744905  0.79316581  0.04460796     0.02500
H523        H  0.16143621  0.72571806  0.99348557     0.15400
H524        H  0.27371385  0.83749096  0.02080028     0.15400
C525        C  0.23833979  0.80648025  0.08245753     0.37100
C526        C  0.19533890  0.75690873  0.93222030     0.37000
N527        N  0.24681587  0.81709862  0.11283626    -0.43200
N528        N  0.18578664  0.74597323  0.90213892    -0.43200
C529        C  0.39883364  0.38526885  0.13278748     0.00300
C530        C  0.41706285  0.41996050  0.14759635    -0.11500
C531        C  0.40207659  0.44137211  0.14776912     0.02600
C532        C  0.36733850  0.42807359  0.13371849     0.00300
C533        C  0.34836227  0.39274763  0.12072782    -0.11500
C534        C  0.36378179  0.37160538  0.11966911     0.02500
H535        H  0.44395567  0.43116955  0.15780912     0.15400
H536        H  0.32180826  0.38197703  0.10969141     0.15400
C537        C  0.34356706  0.33675470  0.10299669     0.37100
C538        C  0.42376334  0.47728777  0.16148453     0.37000
N539        N  0.32750806  0.30892549  0.08931809    -0.43200
N540        N  0.44137504  0.50612430  0.17220712    -0.43200
C541        C  0.39088501  0.03524099  0.86205776     0.00300
C542        C  0.40440223  0.01802424  0.84047556    -0.11500
C543        C  0.38856657  0.98106682  0.84081855     0.02600
C544        C  0.35892781  0.96027725  0.86398118     0.00300
C545        C  0.34305137  0.97700268  0.88219149    -0.11500
C546        C  0.35837056  0.01400197  0.88097351     0.02500
H547        H  0.42833883  0.03358589  0.82423170     0.15400
H548        H  0.31946694  0.96137461  0.89891278     0.15400
C549        C  0.34064342  0.02929473  0.90042300     0.37100
C550        C  0.40342127  0.96534133  0.81704543     0.37000
N551        N  0.32615123  0.04143828  0.91568680    -0.43200
N552        N  0.41519744  0.95284737  0.79765024    -0.43200
C553        C  0.43501765  0.20510152  0.97052408     0.00300
C554        C  0.43791597  0.23690708  0.95905031    -0.11500
C555        C  0.43761680  0.26080434  0.98513700     0.02600
C556        C  0.43379548  0.25294380  0.02414596     0.00300
C557        C  0.42899187  0.22025083  0.03532113    -0.11500
C558        C  0.42986330  0.19663970  0.00928369     0.02500
H559        H  0.44215397  0.24408501  0.92947175     0.15400
H560        H  0.42597292  0.21358249  0.06501954     0.15400
C561        C  0.42664687  0.16456591  0.02366344     0.37100
C562        C  0.44319412  0.29387701  0.97080450     0.37000
N563        N  0.42432722  0.13902188  0.03535707    -0.43200
N564        N  0.44780359  0.32034151  0.95903569    -0.43200
C565        C  0.62363001  0.60872801  0.87262755     0.00300
C566        C  0.58851786  0.59053764  0.85921955    -0.11500
C567        C  0.56815491  0.60653368  0.85823155     0.02600
C568        C  0.58256170  0.64176167  0.87111567     0.00300
C569        C  0.61853207  0.66106484  0.88153357    -0.11500
C570        C  0.63909487  0.64500105  0.88235096     0.02500
H571        H  0.57625645  0.56306458  0.85046382     0.15400
H572        H  0.63028026  0.68838240  0.89068162     0.15400
C573        C  0.67555979  0.66630880  0.89415738     0.37100
C574        C  0.53241236  0.58588678  0.84386812     0.37000
N575        N  0.70481574  0.68377544  0.90348656    -0.43200
N576        N  0.50381573  0.56939298  0.83227053    -0.43200
C577        C  0.58667473  0.46195734  0.97454986     0.00300
C578        C  0.58279963  0.42832666  0.97741522    -0.11500
C579        C  0.55922374  0.40336691  0.00315083     0.02600
C580        C  0.53958102  0.41223839  0.02743526     0.00300
C581        C  0.54262071  0.44534587  0.02383538    -0.11500
C582        C  0.56565402  0.47006784  0.99774453     0.02500
H583        H  0.59797933  0.42127911  0.95919172     0.15400
H584        H  0.52718866  0.45221428  0.04188142     0.15400
C585        C  0.56735047  0.50363655  0.99624474     0.37100
C586        C  0.55440128  0.36837095  0.00255795     0.37000
N587        N  0.56845629  0.53041800  0.99517969    -0.43200
N588        N  0.55023565  0.34021691  0.00176423    -0.43200
C589        C  0.96041176  0.59624680  0.14772293     0.00300
C590        C  0.97999407  0.63169657  0.13598508    -0.11500
C591        C  0.01718077  0.65033289  0.13517416     0.02600
C592        C  0.03558760  0.63318192  0.14562327     0.00300
C593        C  0.01611250  0.59902376  0.16076983    -0.11500
C594        C  0.97910829  0.58070068  0.16233447     0.02500
H595        H  0.96624039  0.64448768  0.12568855     0.15400
H596        H  0.02978609  0.58593244  0.17037962     0.15400
C597        C  0.96138161  0.54568507  0.17837473     0.37100
C598        C  0.03530744  0.68639063  0.12200857     0.37000
N599        N  0.94751544  0.51772014  0.19143518    -0.43200
N600        N  0.04955003  0.71536690  0.11168540    -0.43200
C601        C  0.79774679  0.56715997  0.03642851     0.00300
C602        C  0.80558021  0.56609775  0.99824084    -0.11500
C603        C  0.78390183  0.56640172  0.96949947     0.02600
C604        C  0.75383703  0.56863024  0.97857916     0.00300
C605        C  0.74759734  0.57229648  0.01670719    -0.11500
C606        C  0.76892515  0.57139711  0.04541980     0.02500
H607        H  0.82751125  0.56285907  0.99070115     0.15400
H608        H  0.72500934  0.57442442  0.02440017     0.15400
C609        C  0.75984237  0.57398772  0.08382141     0.37100
C610        C  0.79211512  0.56202405  0.93128473     0.37000
N611        N  0.75238638  0.57602501  0.11453626    -0.43200
N612        N  0.79876767  0.55827357  0.90077022    -0.43200
C613        C  0.95490510  0.37233600  0.86733239     0.00300
C614        C  0.97244539  0.39978527  0.84109453    -0.11500
C615        C  0.00957183  0.41946348  0.83874797     0.02600
C616        C  0.03017427  0.41190017  0.86299276     0.00300
C617        C  0.01268154  0.38266337  0.88697190    -0.11500
C618        C  0.97556196  0.36312466  0.88958806     0.02500
H619        H  0.95714279  0.40678621  0.82314076     0.15400
H620        H  0.02812911  0.37647850  0.90569459     0.15400
C621        C  0.95987950  0.33579703  0.91765807     0.37100
C622        C  0.02576984  0.44727845  0.81121311     0.37000
N623        N  0.94751853  0.31407539  0.94038155    -0.43200
N624        N  0.03852481  0.46936044  0.78889631    -0.43200
C625        C  0.84308249  0.41004188  0.97520064     0.00300
C626        C  0.81349271  0.39850867  0.99869830    -0.11500
C627        C  0.81322148  0.42030968  0.02741015     0.02600
C628        C  0.84290751  0.45473515  0.03278361     0.00300
C629        C  0.87216795  0.46640343  0.00888368    -0.11500
C630        C  0.87258543  0.44460370  0.98044777     0.02500
H631        H  0.79076250  0.37202181  0.99529713     0.15400
H632        H  0.89497317  0.49284687  0.01227207     0.15400
C633        C  0.90372666  0.45885220  0.95711172     0.37100
C634        C  0.78262924  0.40611063  0.05158732     0.37000
N635        N  0.92883273  0.47046586  0.93863538    -0.43200
N636        N  0.75826131  0.39483848  0.07115676    -0.43200
C637        C  0.58474859  0.96967474  0.14076781     0.00300
C638        C  0.57214930  0.98727758  0.16307843    -0.11500
C639        C  0.58849868  0.02426897  0.16279872     0.02600
C640        C  0.61834613  0.04474732  0.13978803     0.00300
C641        C  0.63272901  0.02743323  0.11993202    -0.11500
C642        C  0.61626250  0.99035245  0.12005158     0.02500
H643        H  0.54853201  0.97198814  0.17989079     0.15400
H644        H  0.65581500  0.04274401  0.10240412     0.15400
C645        C  0.63099438  0.97442614  0.09642786     0.37100
C646        C  0.57371082  0.04032262  0.18616101     0.37000
N647        N  0.64280062  0.96175964  0.07733416    -0.43200
N648        N  0.56180307  0.05307442  0.20497030    -0.43200
C649        C  0.58349663  0.15537594  0.03137415     0.00300
C650        C  0.56217976  0.12317964  0.01222070    -0.11500
C651        C  0.54065027  0.12067142  0.98204258     0.02600
C652        C  0.53982073  0.15086297  0.97057392     0.00300
C653        C  0.56133422  0.18315839  0.98955957    -0.11500
C654        C  0.58297759  0.18568763  0.01968842     0.02500
H655        H  0.56283927  0.09985673  0.02034345     0.15400
H656        H  0.56067206  0.20648056  0.98143521     0.15400
C657        C  0.60333934  0.21945699  0.03867244     0.37100
C658        C  0.52059319  0.08695370  0.96290608     0.37000
N659        N  0.61948877  0.24659359  0.05377562    -0.43200
N660        N  0.50470914  0.05985235  0.94768501    -0.43200
C661        C  0.74695825  0.20503937  0.03522214     0.00300
C662        C  0.73954068  0.19333112  0.99754080    -0.11500
C663        C  0.76128065  0.21426817  0.96801154     0.02600
C664        C  0.79150856  0.24777431  0.97586358     0.00300
C665        C  0.80098815  0.25750021  0.01375861    -0.11500
C666        C  0.77913520  0.23678470  0.04322690     0.02500
H667        H  0.71543989  0.16860006  0.99073245     0.15400
H668        H  0.82464790  0.28272538  0.02060143     0.15400
C669        C  0.78963284  0.24999316  0.08114334     0.37100
C670        C  0.75093439  0.20124907  0.93001997     0.37000
N671        N  0.79800612  0.26072133  0.11149806    -0.43200
N672        N  0.74259843  0.19075691  0.89958580    -0.43200
C673        C  0.44908878  0.59958236  0.52761732     0.00300
C674        C  0.42107945  0.56655464  0.53908342    -0.11500
C675        C  0.39743862  0.54191274  0.51304801     0.02600
C676        C  0.40146725  0.55016835  0.47433611     0.00300
C677        C  0.42981804  0.58304097  0.46269019    -0.11500
C678        C  0.45337536  0.60789287  0.48891490     0.02500
H679        H  0.41765913  0.55978694  0.56862741     0.15400
H680        H  0.43295629  0.58981346  0.43317438     0.15400
C681        C  0.48021714  0.64226210  0.47537410     0.37100
C682        C  0.36983392  0.50816534  0.52715366     0.37000
N683        N  0.50145087  0.66984129  0.46436654    -0.43200
N684        N  0.34779209  0.48118515  0.53862448    -0.43200
C685        C  0.23277449  0.44142297  0.46478297     0.00300
C686        C  0.23531341  0.43253423  0.50215943    -0.11500
C687        C  0.21394076  0.43376055  0.53072216     0.02600
C688        C  0.18986942  0.44487344  0.52234463     0.00300
C689        C  0.18520788  0.45068162  0.48446600    -0.11500
C690        C  0.20583306  0.44854750  0.45579531     0.02500
H691        H  0.25524864  0.42616329  0.50959230     0.15400
H692        H  0.16588054  0.45793307  0.47718506     0.15400
C693        C  0.19921635  0.45476948  0.41767078     0.37100
C694        C  0.21853679  0.42503035  0.56847524     0.37000
N695        N  0.19379288  0.45952768  0.38709096    -0.43200
N696        N  0.22207929  0.41771640  0.59866896    -0.43200
C697        C  0.12714287  0.54694693  0.52813129     0.00300
C698        C  0.10742097  0.53217607  0.49492924    -0.11500
C699        C  0.10449595  0.55348735  0.46791069     0.02600
C700        C  0.12101800  0.59024739  0.47427049     0.00300
C701        C  0.13958449  0.60482478  0.50794923    -0.11500
C702        C  0.14318504  0.58375080  0.53459074     0.02500
H703        H  0.09473451  0.50385667  0.48965111     0.15400
H704        H  0.15257691  0.63324039  0.51290645     0.15400
C705        C  0.16348755  0.60075643  0.56815559     0.37100
C706        C  0.08384412  0.53699854  0.43438798     0.37000
N707        N  0.17989990  0.61445749  0.59495740    -0.43200
N708        N  0.06717781  0.52381523  0.40758301    -0.43200
C709        C  0.20077915  0.74848011  0.47674759     0.00300
C710        C  0.20990561  0.73393369  0.50651741    -0.11500
C711        C  0.22924794  0.75435302  0.53756489     0.02600
C712        C  0.24096447  0.79091275  0.53924306     0.00300
C713        C  0.23046923  0.80523133  0.51021431    -0.11500
C714        C  0.21034404  0.78434157  0.47929755     0.02500
H715        H  0.20169152  0.70610901  0.50569521     0.15400
H716        H  0.23898670  0.83307840  0.51094826     0.15400
C717        C  0.20129870  0.80076395  0.44995324     0.37100
C718        C  0.23652085  0.73662669  0.56710895     0.37000
N719        N  0.19405091  0.81398998  0.42647144    -0.43200
N720        N  0.24218843  0.72224185  0.59069000    -0.43200
C721        C  0.40430274  0.87461749  0.53288799     0.00300
C722        C  0.39417738  0.87037542  0.49490736    -0.11500
C723        C  0.41661873  0.87125664  0.46657972     0.02600
C724        C  0.45031255  0.87694660  0.47608009     0.00300
C725        C  0.46112402  0.88308598  0.51391301    -0.11500
C726        C  0.43850998  0.88176924  0.54225836     0.02500
H727        H  0.36804045  0.86526529  0.48729752     0.15400
H728        H  0.48708816  0.88783832  0.52167979     0.15400
C729        C  0.45128337  0.88806213  0.58056848     0.37100
C730        C  0.40422217  0.86617898  0.42817452     0.37000
N731        N  0.46162073  0.89309197  0.61122718    -0.43200
N732        N  0.39424443  0.86207886  0.39741296    -0.43200
C733        C  0.53428589  0.80327363  0.48352166     0.00300
C734        C  0.50815092  0.79125212  0.51146315    -0.11500
C735        C  0.50775402  0.77092665  0.54153400     0.02600
C736        C  0.53392191  0.76158793  0.54427573     0.00300
C737        C  0.56150353  0.77548102  0.51771773    -0.11500
C738        C  0.56203454  0.79635464  0.48762354     0.02500
H739        H  0.48738144  0.79746914  0.50970950     0.15400
H740        H  0.58195663  0.76884358  0.51951004     0.15400
C741        C  0.59055135  0.80903651  0.46087603     0.37100
C742        C  0.47960049  0.75977502  0.56865955     0.37000
N743        N  0.61364201  0.81920093  0.43968787    -0.43200
N744        N  0.45688582  0.75093723  0.59013251    -0.43200
C745        C  0.36795344  0.40912325  0.36495030     0.00300
C746        C  0.35124246  0.37400940  0.37774344    -0.11500
C747        C  0.36922961  0.35538014  0.37823275     0.02600
C748        C  0.40466652  0.37199398  0.36573850     0.00300
C749        C  0.42022554  0.40594698  0.35022325    -0.11500
C750        C  0.40229015  0.42439714  0.34936468     0.02500
H751        H  0.32479153  0.36174297  0.38947215     0.15400
H752        H  0.44712208  0.41867218  0.33960409     0.15400
C753        C  0.42029874  0.45928939  0.33295868     0.37100
C754        C  0.35169523  0.32045673  0.39441204     0.37000
N755        N  0.43473790  0.48724234  0.31984453    -0.43200
N756        N  0.33775924  0.29247663  0.40743616    -0.43200
C757        C  0.36972896  0.97283761  0.64755830     0.00300
C758        C  0.35115329  0.98979060  0.63826289    -0.11500
C759        C  0.36848726  0.02695970  0.63642167     0.02600
C760        C  0.40526933  0.04795487  0.64398680     0.00300
C761        C  0.42278255  0.03094430  0.65699439    -0.11500
C762        C  0.40553866  0.99400826  0.65901484     0.02500
H763        H  0.32350888  0.97397233  0.63006825     0.15400
H764        H  0.45066338  0.04652474  0.66437742     0.15400
C765        C  0.42574454  0.97874287  0.67216558     0.37100
C766        C  0.34817313  0.04246502  0.62470623     0.37000
N767        N  0.44213953  0.96676761  0.68272473    -0.43200
N768        N  0.33178037  0.05481903  0.61536510    -0.43200
C769        C  0.43303025  0.24416405  0.46904607     0.00300
C770        C  0.42881491  0.25299543  0.50606840    -0.11500
C771        C  0.42862155  0.23313931  0.53692169     0.02600
C772        C  0.43312360  0.20395915  0.53115577     0.00300
C773        C  0.43347629  0.19300513  0.49398633    -0.11500
C774        C  0.43325694  0.21255906  0.46316470     0.02500
H775        H  0.42747872  0.27647853  0.51123026     0.15400
H776        H  0.43583269  0.17010818  0.48883552     0.15400
C777        C  0.43419674  0.19986174  0.42593298     0.37100
C778        C  0.42401849  0.24349853  0.57408398     0.37000
N779        N  0.43477036  0.18947297  0.39614517    -0.43200
N780        N  0.41993362  0.25151917  0.60384843    -0.43200
C781        C  0.61907496  0.59122669  0.64212180     0.00300
C782        C  0.63551449  0.62460042  0.62468355    -0.11500
C783        C  0.61909810  0.64480122  0.62344292     0.02600
C784        C  0.58565263  0.63194301  0.64040968     0.00300
C785        C  0.57070757  0.60001691  0.66036758    -0.11500
C786        C  0.58680015  0.57968527  0.66126308     0.02500
H787        H  0.66032288  0.63407967  0.61001046     0.15400
H788        H  0.54541388  0.59002614  0.67419190     0.15400
C789        C  0.56876262  0.54658675  0.68127199     0.37100
C790        C  0.63591086  0.67715748  0.60209062     0.37000
N791        N  0.55396109  0.52004246  0.69725146    -0.43200
N792        N  0.64920112  0.70301416  0.58483536    -0.43200
C793        C  0.58596946  0.44238849  0.53790730     0.00300
C794        C  0.57067980  0.45532754  0.51294415    -0.11500
C795        C  0.55155475  0.43581013  0.48133264     0.02600
C796        C  0.54672960  0.40194748  0.47429103     0.00300
C797        C  0.56163755  0.38876334  0.49958373    -0.11500
C798        C  0.58124141  0.40861247  0.53097295     0.02500
H799        H  0.57450582  0.48144952  0.51749769     0.15400
H800        H  0.55786243  0.36269594  0.49501598     0.15400
C801        C  0.59573554  0.39337222  0.55568556     0.37100
C802        C  0.53789440  0.45181092  0.45651509     0.37000
N803        N  0.60738965  0.38113669  0.57541354    -0.43200
N804        N  0.52709885  0.46477728  0.43664972    -0.43200
C805        C  0.95130087  0.59793989  0.36523228     0.00300
C806        C  0.97070573  0.63031981  0.38470058    -0.11500
C807        C  0.00786816  0.64920095  0.38500080     0.02600
C808        C  0.02631428  0.63571214  0.36532102     0.00300
C809        C  0.00688418  0.60526598  0.34283315    -0.11500
C810        C  0.96983077  0.58639834  0.34257986     0.02500
H811        H  0.95686743  0.63978606  0.40182526     0.15400
H812        H  0.02068456  0.59513303  0.32664524     0.15400
C813        C  0.95169088  0.55490619  0.31939150     0.37100
C814        C  0.02607849  0.68062080  0.40823175     0.37000
N815        N  0.93736827  0.52973624  0.30070071    -0.43200
N816        N  0.04071527  0.70577005  0.42690797    -0.43200
C817        C  0.78957731  0.56472968  0.47400442     0.00300
C818        C  0.80116835  0.56737066  0.51143076    -0.11500
C819        C  0.77990121  0.56519898  0.54186933     0.02600
C820        C  0.74603959  0.56030528  0.53531298     0.00300
C821        C  0.73613024  0.56143092  0.49788776    -0.11500
C822        C  0.75743584  0.56362662  0.46744886     0.02500
H823        H  0.82615713  0.56911625  0.51717552     0.15400
H824        H  0.71078458  0.55878263  0.49211160     0.15400
C825        C  0.74496734  0.56347305  0.42987546     0.37100
C826        C  0.79332953  0.56704905  0.57933655     0.37000
N827        N  0.73507613  0.56341685  0.39973213    -0.43200
N828        N  0.80442812  0.56871793  0.60924419    -0.43200
C829        C  0.94919283  0.38102915  0.63670073     0.00300
C830        C  0.96377563  0.36242553  0.62002747    -0.11500
C831        C  0.00057355  0.37737519  0.61757479     0.02600
C832        C  0.02376678  0.41152545  0.63275814     0.00300
C833        C  0.00896842  0.42904221  0.65152323    -0.11500
C834        C  0.97231692  0.41442111  0.65340396     0.02500
H835        H  0.94642626  0.33681514  0.60703566     0.15400
H836        H  0.02614887  0.45507632  0.66372484     0.15400
C837        C  0.95947087  0.43490950  0.67188205     0.37100
C838        C  0.01337833  0.35775744  0.59733196     0.37000
N839        N  0.94918250  0.45140287  0.68647418    -0.43200
N840        N  0.02329242  0.34181777  0.58088649    -0.43200
C841        C  0.83774561  0.41478968  0.53627561     0.00300
C842        C  0.80668724  0.40312505  0.51514524    -0.11500
C843        C  0.80567603  0.42276196  0.48504126     0.02600
C844        C  0.83668587  0.45458263  0.47471183     0.00300
C845        C  0.86785112  0.46604530  0.49560875    -0.11500
C846        C  0.86859956  0.44692658  0.52636971     0.02500
H847        H  0.78274306  0.37853539  0.52232343     0.15400
H848        H  0.89178177  0.49069871  0.48853452     0.15400
C849        C  0.90134456  0.46158797  0.54727510     0.37100
C850        C  0.77213244  0.40964159  0.46618829     0.37000
N851        N  0.92765804  0.47381527  0.56394814    -0.43200
N852        N  0.74493287  0.39887690  0.45170206    -0.43200
C853        C  0.62318349  0.05092095  0.36856949     0.00300
C854        C  0.64018167  0.03479599  0.38533072    -0.11500
C855        C  0.62377909  0.99769373  0.38664868     0.02600
C856        C  0.58942625  0.97602590  0.37128918     0.00300
C857        C  0.57415351  0.99239329  0.35152987    -0.11500
C858        C  0.59069368  0.02925344  0.34977865     0.02500
H859        H  0.66554172  0.05112952  0.39914509     0.15400
H860        H  0.54849635  0.97632050  0.33819483     0.15400
C861        C  0.57362534  0.04402432  0.32834586     0.37100
C862        C  0.64234265  0.98296330  0.40521548     0.37000
N863        N  0.55996770  0.05571054  0.31088802    -0.43200
N864        N  0.65763905  0.97149482  0.41989688    -0.43200
C865        C  0.59398840  0.16688333  0.47789670     0.00300
C866        C  0.57683879  0.13740564  0.50157464    -0.11500
C867        C  0.55648836  0.13683188  0.53195028     0.02600
C868        C  0.55204032  0.16597144  0.53861279     0.00300
C869        C  0.57006092  0.19591622  0.51556409    -0.11500
C870        C  0.59109875  0.19677078  0.48565075     0.02500
H871        H  0.57976570  0.11470818  0.49673114     0.15400
H872        H  0.56721664  0.21863785  0.52039512     0.15400
C873        C  0.60857882  0.22837102  0.46308175     0.37100
C874        C  0.54115253  0.10611490  0.55589269     0.37000
N875        N  0.62261544  0.25383242  0.44521519    -0.43200
N876        N  0.52919210  0.08152253  0.57508564    -0.43200
C877        C  0.74719968  0.21199292  0.47652186     0.00300
C878        C  0.73404663  0.20315214  0.51337609    -0.11500
C879        C  0.75310845  0.22443403  0.54414612     0.02600
C880        C  0.78710437  0.25458794  0.53872270     0.00300
C881        C  0.80159282  0.26149596  0.50224081    -0.11500
C882        C  0.78179604  0.24102292  0.47121973     0.02500
H883        H  0.70748859  0.18107860  0.51800554     0.15400
H884        H  0.82761756  0.28436669  0.49739556     0.15400
C885        C  0.79712827  0.25143910  0.43426162     0.37100
C886        C  0.73564475  0.21598368  0.58019783     0.37000
N887        N  0.80942135  0.26002812  0.40466409    -0.43200
N888        N  0.72127984  0.20937122  0.60886414    -0.43200
C889        C  0.37885898  0.76478653  0.75091924     0.00300
C890        C  0.37538705  0.74268014  0.72066380    -0.11500
C891        C  0.39556320  0.72659858  0.71862029     0.02600
C892        C  0.42052845  0.73288956  0.74722025     0.00300
C893        C  0.42461199  0.75567509  0.77722875    -0.11500
C894        C  0.40390568  0.77154844  0.77926146     0.02500
H895        H  0.35635402  0.73754562  0.69868867     0.15400
H896        H  0.44346471  0.76050251  0.79940109     0.15400
C897        C  0.40901201  0.79504014  0.81019096     0.37100
C898        C  0.38877832  0.70260283  0.68754168     0.37000
N899        N  0.41302345  0.81408755  0.83477904    -0.43200
N900        N  0.38321703  0.68355804  0.66245183    -0.43200
C901        C  0.23476040  0.62740422  0.74785445     0.00300
C902        C  0.24979256  0.64651523  0.71471468    -0.11500
C903        C  0.26814524  0.68352076  0.71405896     0.02600
C904        C  0.27188437  0.70318098  0.74727212     0.00300
C905        C  0.25764056  0.68427191  0.78079569    -0.11500
C906        C  0.23918800  0.64684307  0.78134198     0.02500
H907        H  0.24841529  0.63248644  0.68901893     0.15400
H908        H  0.26063945  0.69875314  0.80663467     0.15400
C909        C  0.22456371  0.62920131  0.81648984     0.37100
C910        C  0.28458906  0.70018318  0.67895895     0.37000
N911        N  0.21299633  0.61528230  0.84484169    -0.43200
N912        N  0.29766075  0.71329415  0.65071679    -0.43200
C913        C  0.36862080  0.62451539  0.75898811     0.00300
C914        C  0.35244132  0.58977905  0.74386791    -0.11500
C915        C  0.31533101  0.56782243  0.74044592     0.02600
C916        C  0.29304051  0.58044522  0.75173251     0.00300
C917        C  0.30897259  0.61385329  0.76911518    -0.11500
C918        C  0.34562327  0.63518944  0.77395972     0.02500
H919        H  0.36885051  0.57960335  0.73423511     0.15400
H920        H  0.29273995  0.62431742  0.77861153     0.15400
C921        C  0.35715208  0.66718110  0.79529175     0.37100
C922        C  0.30100958  0.53230379  0.72607825     0.37000
N923        N  0.36418948  0.69164266  0.81380937    -0.43200
N924        N  0.28963136  0.50379186  0.71465876    -0.43200
C925        C  0.61493465  0.25277234  0.75027015     0.00300
C926        C  0.63432526  0.28626543  0.73374870    -0.11500
C927        C  0.67130850  0.30494547  0.73212569     0.02600
C928        C  0.69081926  0.29156832  0.75004991     0.00300
C929        C  0.67127789  0.25677656  0.76418503    -0.11500
C930        C  0.63398911  0.23716261  0.76355688     0.02500
H931        H  0.62088866  0.29886924  0.72260177     0.15400
H932        H  0.68510469  0.24458770  0.77564798     0.15400
C933        C  0.61628062  0.20074271  0.77547278     0.37100
C934        C  0.68681977  0.33701383  0.71059882     0.37000
N935        N  0.60218076  0.17148878  0.78484574    -0.43200
N936        N  0.69700992  0.36143569  0.69140208    -0.43200
C937        C  0.61075798  0.38504181  0.76501468     0.00300
C938        C  0.59787086  0.36809147  0.73001941    -0.11500
C939        C  0.57527984  0.33096507  0.72707854     0.02600
C940        C  0.56582093  0.30952446  0.75957110     0.00300
C941        C  0.57875728  0.32665984  0.79439956    -0.11500
C942        C  0.60022032  0.36347342  0.79759553     0.02500
H943        H  0.60505424  0.38397212  0.70478302     0.15400
H944        H  0.57301542  0.31117250  0.81976380     0.15400
C945        C  0.61104831  0.37741068  0.83522898     0.37100
C946        C  0.56164501  0.31596221  0.69041934     0.37000
N947        N  0.61831418  0.38764707  0.86587577    -0.43200
N948        N  0.55090495  0.30419877  0.66085178    -0.43200
C949        C  0.75722832  0.40126518  0.76192112     0.00300
C950        C  0.74001821  0.40191559  0.79487559    -0.11500
C951        C  0.72329448  0.42146419  0.79738556     0.02600
C952        C  0.72208061  0.44024823  0.76587924     0.00300
C953        C  0.74000168  0.44044633  0.73302855    -0.11500
C954        C  0.75822881  0.42188614  0.73118447     0.02500
H955        H  0.73876201  0.38621970  0.81882515     0.15400
H956        H  0.73973881  0.45507895  0.70879146     0.15400
C957        C  0.77747650  0.42415145  0.69748355     0.37100
C958        C  0.70704338  0.42088548  0.83278006     0.37000
N959        N  0.79295127  0.42606495  0.67045115    -0.43200
N960        N  0.69500554  0.42096030  0.86164044    -0.43200
C961        C  0.29360750  0.72297225  0.25737763     0.00300
C962        C  0.30974087  0.70639665  0.23975372    -0.11500
C963        C  0.34660269  0.72248091  0.23734734     0.02600
C964        C  0.36938540  0.75602303  0.25446824     0.00300
C965        C  0.35303291  0.77323018  0.27110357    -0.11500
C966        C  0.31590898  0.75730386  0.27257777     0.02500
H967        H  0.29369933  0.68035961  0.22804607     0.15400
H968        H  0.36919121  0.79942245  0.28295600     0.15400
C969        C  0.30181860  0.77742653  0.28918143     0.37100
C970        C  0.35852742  0.70298792  0.21574942     0.37000
N971        N  0.29071574  0.79365634  0.30268211    -0.43200
N972        N  0.36529593  0.68603307  0.19658444    -0.43200
C973        C  0.70538584  0.30747189  0.25969589     0.00300
C974        C  0.73997822  0.32613853  0.24480577    -0.11500
C975        C  0.76043004  0.36340459  0.24509310     0.02600
C976        C  0.74584609  0.38337048  0.25873844     0.00300
C977        C  0.71243471  0.36484807  0.27567200    -0.11500
C978        C  0.69288352  0.32785269  0.27755016     0.02500
H979        H  0.75148350  0.31152524  0.23315025     0.15400
H980        H  0.70058465  0.37919851  0.28721636     0.15400
C981        C  0.66089196  0.31311287  0.29921125     0.37100
C982        C  0.79675524  0.38022306  0.23289324     0.37000
N983        N  0.63660887  0.30374892  0.31854180    -0.43200
N984        N  0.82598304  0.39368723  0.22345801    -0.43200
C985        C  0.27096883  0.58205107  0.26318718     0.00300
C986        C  0.25959836  0.58649358  0.22767443    -0.11500
C987        C  0.24012893  0.60362714  0.22385100     0.02600
C988        C  0.23252259  0.61767092  0.25586753     0.00300
C989        C  0.24426507  0.61340958  0.29105787    -0.11500
C990        C  0.26250465  0.59556649  0.29513872     0.02500
H991        H  0.26548361  0.57609691  0.20282602     0.15400
H992        H  0.23998095  0.62493777  0.31600189     0.15400
C993        C  0.27259452  0.59275632  0.33293372     0.37100
C994        C  0.22741667  0.60542843  0.18706195     0.37000
N995        N  0.27941764  0.59024750  0.36371903    -0.43200
N996        N  0.21708001  0.60650870  0.15749976    -0.43200
C997        C  0.38289335  0.63164757  0.26572001     0.00300
C998        C  0.40257802  0.64785857  0.23316170    -0.11500
C999        C  0.42495212  0.68494620  0.23124706     0.02600
C1000       C  0.42671205  0.70642855  0.26174669     0.00300
C1001       C  0.40760036  0.69002156  0.29445670    -0.11500
C1002       C  0.38654878  0.65328218  0.29702836     0.02500
H1003       H  0.40020979  0.63155026  0.20907854     0.15400
H1004       H  0.40840046  0.70611570  0.31812865     0.15400
C1005       C  0.36894601  0.63901684  0.33233280     0.37100
C1006       C  0.44469514  0.70039961  0.19728776     0.37000
N1007       N  0.35607448  0.62833249  0.36131956    -0.43200
N1008       N  0.46038413  0.71273968  0.16995095    -0.43200
C1009       C  0.59706069  0.24090727  0.25060812     0.00300
C1010       C  0.59770062  0.25712400  0.21647613    -0.11500
C1011       C  0.57928159  0.27477939  0.21169691     0.02600
C1012       C  0.56086656  0.27852242  0.24224421     0.00300
C1013       C  0.55951513  0.26175753  0.27631032    -0.11500
C1014       C  0.57650018  0.24217973  0.28029032     0.02500
H1015       H  0.61331193  0.25657121  0.19320040     0.15400
H1016       H  0.54503016  0.26382959  0.29983013     0.15400
C1017       C  0.57253168  0.22376562  0.31498940     0.37100
C1018       C  0.58047495  0.28890674  0.17489876     0.37000
N1019       N  0.56903375  0.20883398  0.34278628    -0.43200
N1020       N  0.58106263  0.29893614  0.14478604    -0.43200
C1021       C  0.61605414  0.38979227  0.24591681     0.00300
C1022       C  0.63289918  0.40305495  0.28089156    -0.11500
C1023       C  0.67014094  0.42493960  0.28377889     0.02600
C1024       C  0.69156230  0.43344893  0.25125876     0.00300
C1025       C  0.67451064  0.41929127  0.21667101    -0.11500
C1026       C  0.63772067  0.39827860  0.21358797     0.02500
H1027       H  0.61689385  0.39669985  0.30602877     0.15400
H1028       H  0.69004586  0.42378794  0.19147415     0.15400
C1029       C  0.62360808  0.38531850  0.17644257     0.37100
C1030       C  0.68540179  0.43869988  0.32032986     0.37000
N1031       N  0.61282820  0.37594663  0.14629788    -0.43200
N1032       N  0.69750472  0.44955046  0.34975413    -0.43200
loop_ 
_geom_bond_atom_site_label_1 
_geom_bond_atom_site_label_2 
_geom_bond_distance 
_geom_bond_site_symmetry_2 
_ccdc_geom_bond_type 
C1            C2   1.541       .  S
C1            C7   1.524       .  S
C1            C5   1.537       .  S
C1          C369   1.522       .  S
C2            H9   1.085       .  S
C2            C3   1.369       .  D
C3            C4   1.546       .  S
C3         C1021   1.508       .  S
C4            C8   1.558       .  S
C4            C6   1.547       .  S
C4           H10   1.110       .  S
C5           H11   1.086       .  S
C5            C6   1.373       .  D
C6         C1012   1.500       .  S
C7           H12   1.086       .  S
C7            C8   1.367       .  D
C8          C199   1.487       .  S
C13          C14   1.536       .  S
C13          C19   1.524       .  S
C13          C17   1.535       .  S
C13         C253   1.509       .  S
C14          H21   1.086       .  S
C14          C15   1.365       .  D
C15          C16   1.544       .  S
C15         C997   1.493       .  S
C16          C20   1.556       .  S
C16          C18   1.550       .  S
C16          H22   1.110       .  S
C17          H23   1.084       .  S
C17          C18   1.375       .  D
C18         C985   1.504       .  S
C19          H24   1.086       .  S
C19          C20   1.363       .  D
C20         C432   1.484       .  S
C25          C26   1.544       .  S
C25          C31   1.519       .  S
C25          C29   1.535       .  S
C25         C328   1.514       .  S
C26          H33   1.084       .  S
C26          C27   1.371       .  D
C27          C28   1.547       .  S
C27         C976   1.507       .  S
C28          C32   1.551       .  S
C28          C30   1.551       .  S
C28          H34   1.106       .  S
C29          H35   1.086       .  S
C29          C30   1.379       .  D
C30        C1024   1.511       .  S
C31          H36   1.086       .  S
C31          C32   1.360       .  D
C32         C160   1.480       .  S
C37          C38   1.532       .  S
C37          C43   1.521       .  S
C37          C41   1.541       .  S
C37         C302   1.515       .  S
C38          H45   1.087       .  S
C38          C39   1.369       .  D
C39          C40   1.552       .  S
C39        C1009   1.503       .  S
C40          C44   1.557       .  S
C40          C42   1.553       .  S
C40          H46   1.104       .  S
C41          H47   1.085       .  S
C41          C42   1.380       .  D
C42         C973   1.515       .  S
C43          H48   1.087       .  S
C43          C44   1.360       .  D
C44         C134   1.484       .  S
C49          C50   1.538       .  S
C49          C55   1.518       .  S
C49          C53   1.538       .  S
C49         C227   1.509       .  S
C50          H57   1.087       .  S
C50          C51   1.370       .  D
C51          C52   1.547       .  S
C51         C988   1.505       .  S
C52          C56   1.555       .  S
C52          C54   1.554       .  S
C52          H58   1.108       .  S
C53          H59   1.084       .  S
C53          C54   1.374       .  D
C54         C961   1.508       .  S
C55          H60   1.086       .  S
C55          C56   1.361       .  D
C56         C380   1.484       .  S
C61          C62   1.546       .  S
C61          C67   1.517       .  S
C61          C65   1.528       .  S
C61         C212   1.515       .  S
C62          H69   1.085       .  S
C62          C63   1.376       .  D
C63          C64   1.555       .  S
C63         C964   1.523       .  S
C64          C68   1.557       .  S
C64          C66   1.552       .  S
C64          H70   1.104       .  S
C65          H71   1.087       .  S
C65          C66   1.372       .  D
C66        C1000   1.493       .  S
C67          H72   1.087       .  S
C67          C68   1.361       .  D
C68         C406   1.487       .  S
C73          C74   1.540       .  S
C73          C79   1.521       .  S
C73          C77   1.535       .  S
C73         C341   1.517       .  S
C74          H81   1.084       .  S
C74          C75   1.367       .  D
C75          C76   1.551       .  S
C75         C937   1.510       .  S
C76          C80   1.564       .  S
C76          C78   1.550       .  S
C76          H82   1.110       .  S
C77          H83   1.086       .  S
C77          C78   1.372       .  D
C78         C952   1.500       .  S
C79          H84   1.086       .  S
C79          C80   1.366       .  D
C80         C173   1.491       .  S
C85          C86   1.544       .  S
C85          C91   1.518       .  S
C85          C89   1.537       .  S
C85         C356   1.514       .  S
C86          H93   1.083       .  S
C86          C87   1.371       .  D
C87          C88   1.547       .  S
C87         C925   1.508       .  S
C88          C92   1.548       .  S
C88          C90   1.553       .  S
C88          H94   1.105       .  S
C89          H95   1.085       .  S
C89          C90   1.380       .  D
C90         C940   1.512       .  S
C91          H96   1.086       .  S
C91          C92   1.358       .  D
C92         C186   1.476       .  S
C97          C98   1.543       .  S
C97         C103   1.529       .  S
C97         C101   1.545       .  S
C97         C277   1.527       .  S
C98         H105   1.086       .  S
C98          C99   1.371       .  D
C99         C100   1.544       .  S
C99         C901   1.509       .  S
C100        C104   1.548       .  S
C100        C102   1.550       .  S
C100        H106   1.108       .  S
C101        H107   1.085       .  S
C101        C102   1.379       .  D
C102        C916   1.509       .  S
C103        H108   1.086       .  S
C103        C104   1.363       .  D
C104        C447   1.488       .  S
C109        C110   1.547       .  S
C109        C115   1.518       .  S
C109        C113   1.533       .  S
C109        C266   1.510       .  S
C110        H117   1.084       .  S
C110        C111   1.378       .  D
C111        C112   1.554       .  S
C111        C913   1.522       .  S
C112        C116   1.553       .  S
C112        C114   1.548       .  S
C112        H118   1.103       .  S
C113        H119   1.086       .  S
C113        C114   1.370       .  D
C114        C892   1.493       .  S
C115        H120   1.086       .  S
C115        C116   1.358       .  D
C116        C421   1.482       .  S
C121        C122   1.539       .  S
C121        C127   1.520       .  S
C121        C125   1.543       .  S
C121        C315   1.519       .  S
C122        H129   1.086       .  S
C122        C123   1.367       .  D
C123        C124   1.547       .  S
C123        C949   1.501       .  S
C124        C128   1.548       .  S
C124        C126   1.552       .  S
C124        H130   1.101       .  S
C125        H131   1.085       .  S
C125        C126   1.383       .  D
C126        C928   1.517       .  S
C127        H132   1.086       .  S
C127        C128   1.360       .  D
C128        C147   1.479       .  S
O133        C136   1.266       .  A
O133       Cd138   2.437       .  S
C134        O143   1.267       .  A
C134        O139   1.263       .  A
O135        C141   1.261       .  A
O135       Cd138   2.433       .  S
C136        O144   1.265       .  A
C136        C865   1.480       .  S
C137        O142   1.268       .  A
C137        O140   1.266       .  A
C137        C853   1.488       .  S
Cd138       O145   2.506       .  S
Cd138       O144   2.453       .  S
Cd138       O143   2.465       .  S
Cd138       O139   2.515       .  S
Cd138       O142   2.499       .  S
Cd138       O140   2.450       .  S
C141        O145   1.268       .  A
C141        C877   1.486       .  S
O146        C149   1.264       .  A
O146       Cd151   2.452       .  S
C147        O156   1.266       .  A
C147        O152   1.263       .  A
O148        C154   1.267       .  A
O148       Cd151   2.473       .  S
C149        O157   1.264       .  A
C149        C841   1.481       .  S
C150        O155   1.269       .  A
C150        O153   1.265       .  A
C150        C829   1.487       .  S
Cd151       O158   2.447       .  S
Cd151       O157   2.431       .  S
Cd151       O156   2.456       .  S
Cd151       O152   2.498       .  S
Cd151       O155   2.477       .  S
Cd151       O153   2.427       .  S
C154        O158   1.263       .  A
C154        C880   1.490       .  S
O159        C162   1.264       .  A
O159       Cd164   2.461       .  S
C160        O169   1.267       .  A
C160        O165   1.264       .  A
O161        C167   1.262       .  A
O161       Cd164   2.457       .  S
C162        O170   1.264       .  A
C162        C844   1.482       .  S
C163        O168   1.269       .  A
C163        O166   1.266       .  A
C163        C805   1.487       .  S
Cd164       O171   2.499       .  S
Cd164       O170   2.431       .  S
Cd164       O169   2.456       .  S
Cd164       O165   2.503       .  S
Cd164       O168   2.490       .  S
Cd164       O166   2.449       .  S
C167        O171   1.267       .  A
C167        C817   1.493       .  S
O172        C175   1.264       .  A
O172       Cd177   2.448       .  S
C173        O182   1.267       .  A
C173        O178   1.265       .  A
O174        C180   1.260       .  A
O174       Cd177   2.465       .  S
C175        O183   1.266       .  A
C175        C793   1.485       .  S
C176        O181   1.269       .  A
C176        O179   1.266       .  A
C176        C781   1.499       .  S
Cd177       O184   2.524       .  S
Cd177       O183   2.477       .  S
Cd177       O182   2.471       .  S
Cd177       O178   2.553       .  S
Cd177       O181   2.515       .  S
Cd177       O179   2.476       .  S
C180        O184   1.267       .  A
C180        C820   1.496       .  S
O185        C188   1.265       .  A
O185       Cd190   2.456       .  S
C186        O195   1.266       .  A
C186        O191   1.263       .  A
O187        C193   1.264       .  A
O187       Cd190   2.463       .  S
C188        O196   1.264       .  A
C188        C868   1.484       .  S
C189        O194   1.269       .  A
C189        O192   1.265       .  A
C189        C760   1.496       .  S
Cd190       O197   2.500       .  S
Cd190       O196   2.443       .  S
Cd190       O195   2.454       .  S
Cd190       O191   2.502       .  S
Cd190       O194   2.516       .  S
Cd190       O192   2.450       .  S
C193        O197   1.268       .  A
C193        C772   1.493       .  S
O198        C201   1.266       .  A
O198       Cd203   2.467       .  S
C199        O208   1.265       .  A
C199        O204   1.265       .  A
O200        C206   1.268       .  A
O200       Cd203   2.489       .  S
C201        O209   1.264       .  A
C201        C796   1.488       .  S
C202        O207   1.268       .  A
C202        O205   1.265       .  A
C202        C748   1.486       .  S
Cd203       O210   2.474       .  S
Cd203       O209   2.441       .  S
Cd203       O208   2.472       .  S
Cd203       O204   2.541       .  S
Cd203       O207   2.502       .  S
Cd203       O205   2.439       .  S
C206        O210   1.263       .  A
C206        C769   1.494       .  S
O211        C214   1.266       .  A
O211       Cd216   2.449       .  S
C212        O221   1.269       .  A
C212        O217   1.262       .  A
O213        C219   1.268       .  A
O213       Cd216   2.524       .  S
C214        O222   1.266       .  A
C214        C724   1.482       .  S
C215        O220   1.269       .  A
C215        O218   1.262       .  A
C215        C733   1.489       .  S
Cd216       O223   2.431       .  S
Cd216       O222   2.450       .  S
Cd216       O221   2.522       .  S
Cd216       O217   2.455       .  S
Cd216       O220   2.540       .  S
Cd216       O218   2.406       .  S
C219        O223   1.263       .  A
C219        C856   1.492       .  S
O224        C227   1.262       .  A
O224       Cd229   2.436       .  S
C225        O234   1.264       .  A
C225        O230   1.265       .  A
C225        C700   1.473       .  S
O226        C232   1.270       .  A
O226       Cd229   2.522       .  S
C227        O235   1.267       .  A
C228        O233   1.266       .  A
C228        O231   1.262       .  A
C228        C808   1.487       .  S
Cd229       O236   2.423       .  S
Cd229       O235   2.507       .  S
Cd229       O234   2.443       .  S
Cd229       O230   2.462       .  S
Cd229       O233   2.501       .  S
Cd229       O231   2.443       .  S
C232        O236   1.264       .  A
C232        C709   1.490       .  S
O237        C240   1.264       .  A
O237       Cd242   2.431       .  S
C238        O247   1.265       .  A
C238        O243   1.266       .  A
C238        C721   1.479       .  S
O239        C245   1.269       .  A
O239       Cd242   2.526       .  S
C240        C289   1.513       .  S
C240        O248   1.269       .  A
C241        O246   1.271       .  A
C241        O244   1.260       .  A
C241        C757   1.491       .  S
Cd242       O249   2.433       .  S
Cd242       O248   2.517       .  S
Cd242       O247   2.450       .  S
Cd242       O243   2.456       .  S
Cd242       O246   2.538       .  S
Cd242       O244   2.426       .  S
C245        O249   1.263       .  A
C245        C712   1.496       .  S
O250        C253   1.265       .  A
O250       Cd255   2.464       .  S
C251        O260   1.260       .  A
C251        O256   1.265       .  A
C251        C676   1.479       .  S
O252        C258   1.267       .  A
O252       Cd255   2.463       .  S
C253        O261   1.268       .  A
C254        O259   1.268       .  A
C254        O257   1.260       .  A
C254        C745   1.489       .  S
Cd255       O262   2.464       .  S
Cd255       O261   2.477       .  S
Cd255       O260   2.421       .  S
Cd255       O256   2.483       .  S
Cd255       O259   2.523       .  S
Cd255       O257   2.420       .  S
C258        O262   1.265       .  A
C258        C685   1.493       .  S
O263        C266   1.264       .  A
O263       Cd268   2.454       .  S
C264        O273   1.263       .  A
C264        O269   1.265       .  A
C264        C673   1.477       .  S
O265        C271   1.270       .  A
O265       Cd268   2.509       .  S
C266        O274   1.270       .  A
C267        O272   1.268       .  A
C267        O270   1.263       .  A
C267        C784   1.495       .  S
Cd268       O275   2.413       .  S
Cd268       O274   2.490       .  S
Cd268       O273   2.459       .  S
Cd268       O269   2.435       .  S
Cd268       O272   2.524       .  S
Cd268       O270   2.452       .  S
C271        O275   1.263       .  A
C271        C736   1.490       .  S
O276        C279   1.269       .  A
O276       Cd281   2.451       .  S
C277        O286   1.269       .  A
C277        O282   1.265       .  A
O278        C284   1.267       .  A
O278       Cd281   2.526       .  S
C279        O287   1.266       .  A
C279        C697   1.481       .  S
C280        O285   1.259       .  A
C280        O283   1.269       .  A
C280        C688   1.494       .  S
Cd281       O288   2.444       .  S
Cd281       O287   2.443       .  S
Cd281       O286   2.549       .  S
Cd281       O282   2.479       .  S
Cd281       O285   2.444       .  S
Cd281       O283   2.543       .  S
C284        O288   1.261       .  A
C284        C832   1.494       .  S
C289        C290   1.540       .  S
C289        C295   1.518       .  S
C289        C293   1.534       .  S
C290        H297   1.086       .  S
C290        C291   1.363       .  D
C291        C292   1.542       .  S
C291        C889   1.489       .  S
C292        C296   1.561       .  S
C292        C294   1.554       .  S
C292        H298   1.111       .  S
C293        H299   1.085       .  S
C293        C294   1.375       .  D
C294        C904   1.508       .  S
C295        H300   1.086       .  S
C295        C296   1.365       .  D
C296        C393   1.487       .  S
O301        C304   1.265       .  A
O301       Cd306   2.461       .  S
C302        O311   1.266       .  A
C302        O307   1.264       .  A
O303        C309   1.268       .  A
O303       Cd306   2.496       .  S
C304        O312   1.263       .  A
C304        C649   1.483       .  S
C305        O310   1.263       .  A
C305        O308   1.268       .  A
C305        C661   1.495       .  S
Cd306       O313   2.466       .  S
Cd306       O312   2.470       .  S
Cd306       O311   2.504       .  S
Cd306       O307   2.487       .  S
Cd306       O310   2.467       .  S
Cd306       O308   2.492       .  S
C309        O313   1.266       .  A
C309        C640   1.492       .  S
O314        C317   1.265       .  A
O314       Cd319   2.470       .  S
C315        O324   1.270       .  A
C315        O320   1.263       .  A
O316        C322   1.266       .  A
O316       Cd319   2.518       .  S
C317        O325   1.265       .  A
C317        C625   1.486       .  S
C318        O323   1.270       .  A
C318        O321   1.264       .  A
C318        C664   1.495       .  S
Cd319       O326   2.488       .  S
Cd319       O325   2.452       .  S
Cd319       O324   2.539       .  S
Cd319       O320   2.443       .  S
Cd319       O323   2.508       .  S
Cd319       O321   2.448       .  S
C322        O326   1.263       .  A
C322        C613   1.497       .  S
O327        C330   1.264       .  A
O327       Cd332   2.445       .  S
C328        O337   1.269       .  A
C328        O333   1.265       .  A
O329        C335   1.268       .  A
O329       Cd332   2.511       .  S
C330        O338   1.265       .  A
C330        C628   1.485       .  S
C331        O336   1.266       .  A
C331        O334   1.264       .  A
C331        C601   1.493       .  S
Cd332       O339   2.450       .  S
Cd332       O338   2.467       .  S
Cd332       O337   2.505       .  S
Cd332       O333   2.452       .  S
Cd332       O336   2.488       .  S
Cd332       O334   2.474       .  S
C335        O339   1.262       .  A
C335        C589   1.494       .  S
O340        C343   1.266       .  A
O340       Cd345   2.472       .  S
C341        O350   1.269       .  A
C341        O346   1.264       .  A
O342        C348   1.269       .  A
O342       Cd345   2.546       .  S
C343        O351   1.264       .  A
C343        C577   1.486       .  S
C344        O349   1.263       .  A
C344        O347   1.267       .  A
C344        C604   1.497       .  S
Cd345       O352   2.444       .  S
Cd345       O351   2.447       .  S
Cd345       O350   2.528       .  S
Cd345       O346   2.442       .  S
Cd345       O349   2.468       .  S
Cd345       O347   2.510       .  S
C348        O352   1.263       .  A
C348        C565   1.500       .  S
O353        C356   1.265       .  A
O353       Cd358   2.457       .  S
C354        O363   1.265       .  A
C354        O359   1.265       .  A
C354        C652   1.484       .  S
O355        C361   1.269       .  A
O355       Cd358   2.509       .  S
C356        O364   1.268       .  A
C357        O362   1.267       .  A
C357        O360   1.264       .  A
C357        C541   1.499       .  S
Cd358       O365   2.456       .  S
Cd358       O364   2.508       .  S
Cd358       O363   2.462       .  S
Cd358       O359   2.457       .  S
Cd358       O362   2.525       .  S
Cd358       O360   2.478       .  S
C361        O365   1.262       .  A
C361        C553   1.496       .  S
O366        C369   1.265       .  A
O366       Cd371   2.466       .  S
C367        O376   1.266       .  A
C367        O372   1.264       .  A
C367        C580   1.479       .  S
O368        C374   1.261       .  A
O368       Cd371   2.467       .  S
C369        O377   1.270       .  A
C370        O375   1.269       .  A
C370        O373   1.263       .  A
C370        C529   1.502       .  S
Cd371       O378   2.519       .  S
Cd371       O377   2.532       .  S
Cd371       O376   2.465       .  S
Cd371       O372   2.435       .  S
Cd371       O375   2.527       .  S
Cd371       O373   2.464       .  S
C374        O378   1.270       .  A
C374        C556   1.499       .  S
O379        C382   1.267       .  A
O379       Cd384   2.495       .  S
C380        O389   1.266       .  A
C380        O385   1.265       .  A
O381        C387   1.259       .  A
O381       Cd384   2.429       .  S
C382        O390   1.263       .  A
C382        C505   1.490       .  S
C383        O388   1.267       .  A
C383        O386   1.267       .  A
C383        C592   1.492       .  S
Cd384       O391   2.502       .  S
Cd384       O390   2.439       .  S
Cd384       O389   2.451       .  S
Cd384       O385   2.522       .  S
Cd384       O388   2.489       .  S
Cd384       O386   2.450       .  S
C387        O391   1.266       .  A
C387        C517   1.487       .  S
O392        C395   1.265       .  A
O392       Cd397   2.447       .  S
C393        O402   1.266       .  A
C393        O398   1.264       .  A
O394        C400   1.267       .  A
O394       Cd397   2.489       .  S
C395        O403   1.265       .  A
C395        C496   1.484       .  S
C396        O401   1.268       .  A
C396        O399   1.267       .  A
C396        C544   1.496       .  S
Cd397       O404   2.468       .  S
Cd397       O403   2.457       .  S
Cd397       O402   2.458       .  S
Cd397       O398   2.544       .  S
Cd397       O401   2.506       .  S
Cd397       O399   2.467       .  S
C400        O404   1.261       .  A
C400        C520   1.492       .  S
O405        C408   1.264       .  A
O405       Cd410   2.444       .  S
C406        O415   1.266       .  A
C406        O411   1.265       .  A
O407        C413   1.269       .  A
O407       Cd410   2.533       .  S
C408        O416   1.264       .  A
C408        C493   1.481       .  S
C409        O414   1.268       .  A
C409        O412   1.266       .  A
C409        C637   1.493       .  S
Cd410       O417   2.426       .  S
Cd410       O416   2.471       .  S
Cd410       O415   2.454       .  S
Cd410       O411   2.539       .  S
Cd410       O414   2.493       .  S
Cd410       O412   2.458       .  S
C413        O417   1.261       .  A
C413        C481   1.494       .  S
O418        C421   1.262       .  A
O418       Cd423   2.514       .  S
C419        O428   1.264       .  A
C419        O424   1.264       .  A
C419        C469   1.485       .  S
O420        C426   1.270       .  A
O420       Cd423   2.516       .  S
C421        O429   1.266       .  A
C422        O427   1.263       .  A
C422        O425   1.267       .  A
C422        C484   1.491       .  S
Cd423       O430   2.442       .  S
Cd423       O429   2.469       .  S
Cd423       O428   2.463       .  S
Cd423       O424   2.441       .  S
Cd423       O427   2.469       .  S
Cd423       O425   2.475       .  S
C426        O430   1.266       .  A
C426        C568   1.494       .  S
O431        C434   1.265       .  A
O431       Cd436   2.479       .  S
C432        O441   1.267       .  A
C432        O437   1.264       .  A
O433        C439   1.261       .  A
O433       Cd436   2.455       .  S
C434        O442   1.264       .  A
C434        C472   1.478       .  S
C435        O440   1.270       .  A
C435        O438   1.266       .  A
C435        C532   1.503       .  S
Cd436       O443   2.525       .  S
Cd436       O442   2.422       .  S
Cd436       O441   2.461       .  S
Cd436       O437   2.532       .  S
Cd436       O440   2.521       .  S
Cd436       O438   2.475       .  S
C439        O443   1.269       .  A
C439        C457   1.499       .  S
O444        C447   1.264       .  A
O444       Cd449   2.512       .  S
C445        O454   1.264       .  A
C445        O450   1.266       .  A
C445        C508   1.484       .  S
O446        C452   1.270       .  A
O446       Cd449   2.501       .  S
C447        O455   1.267       .  A
C448        O453   1.261       .  A
C448        O451   1.269       .  A
C448        C460   1.494       .  S
Cd449       O456   2.478       .  S
Cd449       O455   2.505       .  S
Cd449       O454   2.466       .  S
Cd449       O450   2.456       .  S
Cd449       O453   2.468       .  S
Cd449       O451   2.512       .  S
C452        O456   1.267       .  A
C452        C616   1.492       .  S
C457        C458   1.406       .  A
C457        C462   1.421   1_554  A
C458        C459   1.406       .  A
C458        H463   1.083       .  S
C459        C460   1.420   1_554  A
C459        C466   1.445       .  S
C460        C461   1.402       .  A
C461        C462   1.405       .  A
C461        H464   1.084       .  S
C462        C465   1.444       .  S
C465        N467   1.157       .  T
C466        N468   1.158       .  T
C469        C470   1.409       .  A
C469        C474   1.415       .  A
C470        C471   1.402   1_556  A
C470        H475   1.087       .  S
C471        C472   1.411       .  A
C471        C478   1.444       .  S
C472        C473   1.403       .  A
C473        C474   1.395   1_554  A
C473        H476   1.087       .  S
C474        C477   1.444       .  S
C477        N479   1.157       .  T
C478        N480   1.158       .  T
C481        C482   1.409       .  A
C481        C486   1.415       .  A
C482        C483   1.400   1_554  A
C482        H487   1.083   1_554  S
C483        C484   1.412       .  A
C483        C490   1.444       .  S
C484        C485   1.410   1_556  A
C485        C486   1.406       .  A
C485        H488   1.082       .  S
C486        C489   1.444       .  S
C489        N491   1.157       .  T
C490        N492   1.157       .  T
C493        C494   1.406       .  A
C493        C498   1.411       .  A
C494        C495   1.402   1_554  A
C494        H499   1.085       .  S
C495        C496   1.415       .  A
C495        C502   1.445       .  S
C496        C497   1.406       .  A
C497        C498   1.397   1_556  A
C497        H500   1.085       .  S
C498        C501   1.444       .  S
C501        N503   1.157       .  T
C502        N504   1.158       .  T
C505        C506   1.406       .  A
C505        C510   1.418       .  A
C506        C507   1.404   1_554  A
C506        H511   1.084       .  S
C507        C508   1.416       .  A
C507        C514   1.445       .  S
C508        C509   1.401       .  A
C509        C510   1.399   1_556  A
C509        H512   1.084       .  S
C510        C513   1.444       .  S
C513        N515   1.157       .  T
C514        N516   1.158   1_556  T
C517        C518   1.407   1_554  A
C517        C522   1.412       .  A
C518        C519   1.399       .  A
C518        H523   1.083       .  S
C519        C520   1.413       .  A
C519        C526   1.444       .  S
C520        C521   1.411   1_556  A
C521        C522   1.405       .  A
C521        H524   1.082       .  S
C522        C525   1.445       .  S
C525        N527   1.158       .  T
C526        N528   1.157       .  T
C529        C530   1.409       .  A
C529        C534   1.416       .  A
C530        C531   1.404       .  A
C530        H535   1.084       .  S
C531        C532   1.418       .  A
C531        C538   1.445       .  S
C532        C533   1.409       .  A
C533        C534   1.410       .  A
C533        H536   1.084       .  S
C534        C537   1.443       .  S
C537        N539   1.157       .  T
C538        N540   1.158       .  T
C541        C542   1.407       .  A
C541        C546   1.417       .  A
C542        C543   1.403   1_545  A
C542        H547   1.085       .  S
C543        C544   1.415       .  A
C543        C550   1.444       .  S
C544        C545   1.407       .  A
C545        C546   1.408   1_565  A
C545        H548   1.085       .  S
C546        C549   1.443       .  S
C549        N551   1.157       .  T
C550        N552   1.157       .  T
C553        C554   1.404       .  A
C553        C558   1.418   1_556  A
C554        C555   1.405       .  A
C554        H559   1.089       .  S
C555        C556   1.422   1_556  A
C555        C562   1.445       .  S
C556        C557   1.405       .  A
C557        C558   1.404       .  A
C557        H560   1.088       .  S
C558        C561   1.444       .  S
C561        N563   1.157       .  T
C562        N564   1.158       .  T
C565        C566   1.408       .  A
C565        C570   1.418       .  A
C566        C567   1.400       .  A
C566        H571   1.084       .  S
C567        C568   1.414       .  A
C567        C574   1.445       .  S
C568        C569   1.408       .  A
C569        C570   1.410       .  A
C569        H572   1.084       .  S
C570        C573   1.443       .  S
C573        N575   1.157       .  T
C574        N576   1.157       .  T
C577        C578   1.407       .  A
C577        C582   1.417       .  A
C578        C579   1.401   1_556  A
C578        H583   1.085       .  S
C579        C580   1.413       .  A
C579        C586   1.445       .  S
C580        C581   1.402       .  A
C581        C582   1.397   1_554  A
C581        H584   1.085       .  S
C582        C585   1.444       .  S
C585        N587   1.157       .  T
C586        N588   1.158       .  T
C589        C590   1.407       .  A
C589        C594   1.417       .  A
C590        C591   1.406   1_655  A
C590        H595   1.085       .  S
C591        C592   1.417       .  A
C591        C598   1.444       .  S
C592        C593   1.404       .  A
C593        C594   1.400   1_455  A
C593        H596   1.084       .  S
C594        C597   1.444       .  S
C597        N599   1.157       .  T
C598        N600   1.157       .  T
C601        C602   1.408   1_554  A
C601        C606   1.413       .  A
C602        C603   1.405       .  A
C602        H607   1.082       .  S
C603        C604   1.417       .  A
C603        C610   1.444       .  S
C604        C605   1.409   1_556  A
C605        C606   1.403       .  A
C605        H608   1.083       .  S
C606        C609   1.444       .  S
C609        N611   1.157       .  T
C610        N612   1.157       .  T
C613        C614   1.408       .  A
C613        C618   1.417       .  A
C614        C615   1.406   1_655  A
C614        H619   1.085       .  S
C615        C616   1.414       .  A
C615        C622   1.444       .  S
C616        C617   1.405       .  A
C617        C618   1.406   1_455  A
C617        H620   1.085       .  S
C618        C621   1.443       .  S
C621        N623   1.157       .  T
C622        N624   1.157       .  T
C625        C626   1.407       .  A
C625        C630   1.414       .  A
C626        C627   1.402   1_556  A
C626        H631   1.083       .  S
C627        C628   1.414       .  A
C627        C634   1.445       .  S
C628        C629   1.405       .  A
C629        C630   1.398   1_554  A
C629        H632   1.083       .  S
C630        C633   1.444       .  S
C633        N635   1.157       .  T
C634        N636   1.158       .  T
C637        C638   1.407       .  A
C637        C642   1.417       .  A
C638        C639   1.402   1_565  A
C638        H643   1.085       .  S
C639        C640   1.415       .  A
C639        C646   1.444       .  S
C640        C641   1.406       .  A
C641        C642   1.405   1_545  A
C641        H644   1.085       .  S
C642        C645   1.444       .  S
C645        N647   1.157       .  T
C646        N648   1.157       .  T
C649        C650   1.405       .  A
C649        C654   1.414       .  A
C650        C651   1.399   1_554  A
C650        H655   1.085       .  S
C651        C652   1.413       .  A
C651        C658   1.444       .  S
C652        C653   1.406       .  A
C653        C654   1.401   1_556  A
C653        H656   1.085       .  S
C654        C657   1.444       .  S
C657        N659   1.157       .  T
C658        N660   1.157       .  T
C661        C662   1.410   1_554  A
C661        C666   1.414       .  A
C662        C663   1.405       .  A
C662        H667   1.085       .  S
C663        C664   1.414       .  A
C663        C670   1.444       .  S
C664        C665   1.409   1_556  A
C665        C666   1.402       .  A
C665        H668   1.088       .  S
C666        C669   1.444       .  S
C669        N671   1.157       .  T
C670        N672   1.157       .  T
C673        C674   1.401       .  A
C673        C678   1.415       .  A
C674        C675   1.394       .  A
C674        H679   1.084       .  S
C675        C676   1.415       .  A
C675        C682   1.445       .  S
C676        C677   1.405       .  A
C677        C678   1.401       .  A
C677        H680   1.083       .  S
C678        C681   1.445       .  S
C681        N683   1.158       .  T
C682        N684   1.157       .  T
C685        C686   1.410       .  A
C685        C690   1.414       .  A
C686        C687   1.406       .  A
C686        H691   1.085       .  S
C687        C688   1.413       .  A
C687        C694   1.443       .  S
C688        C689   1.408       .  A
C689        C690   1.401       .  A
C689        H692   1.086       .  S
C690        C693   1.445       .  S
C693        N695   1.158       .  T
C694        N696   1.157       .  T
C697        C698   1.408       .  A
C697        C702   1.413       .  A
C698        C699   1.400       .  A
C698        H703   1.088       .  S
C699        C700   1.409       .  A
C699        C706   1.444       .  S
C700        C701   1.402       .  A
C701        C702   1.397       .  A
C701        H704   1.089       .  S
C702        C705   1.444       .  S
C705        N707   1.157       .  T
C706        N708   1.157       .  T
C709        C710   1.404       .  A
C709        C714   1.413       .  A
C710        C711   1.398       .  A
C710        H715   1.085       .  S
C711        C712   1.417       .  A
C711        C718   1.445       .  S
C712        C713   1.411       .  A
C713        C714   1.410       .  A
C713        H716   1.083       .  S
C714        C717   1.443       .  S
C717        N719   1.157       .  T
C718        N720   1.157       .  T
C721        C722   1.404       .  A
C721        C726   1.412       .  A
C722        C723   1.399       .  A
C722        H727   1.088       .  S
C723        C724   1.414       .  A
C723        C730   1.444       .  S
C724        C725   1.405       .  A
C725        C726   1.399       .  A
C725        H728   1.088       .  S
C726        C729   1.444       .  S
C729        N731   1.157       .  T
C730        N732   1.157       .  T
C733        C734   1.405       .  A
C733        C738   1.414       .  A
C734        C735   1.395       .  A
C734        H739   1.085       .  S
C735        C736   1.415       .  A
C735        C742   1.446       .  S
C736        C737   1.409       .  A
C737        C738   1.409       .  A
C737        H740   1.085       .  S
C738        C741   1.443       .  S
C741        N743   1.157       .  T
C742        N744   1.158       .  T
C745        C746   1.407       .  A
C745        C750   1.417       .  A
C746        C747   1.406       .  A
C746        H751   1.086       .  S
C747        C748   1.414       .  A
C747        C754   1.443       .  S
C748        C749   1.403       .  A
C749        C750   1.398       .  A
C749        H752   1.087       .  S
C750        C753   1.445       .  S
C753        N755   1.157       .  T
C754        N756   1.157       .  T
C757        C758   1.405       .  A
C757        C762   1.416       .  A
C758        C759   1.408   1_565  A
C758        H763   1.085       .  S
C759        C760   1.417       .  A
C759        C766   1.442       .  S
C760        C761   1.406       .  A
C761        C762   1.400   1_545  A
C761        H764   1.086       .  S
C762        C765   1.446       .  S
C765        N767   1.158       .  T
C766        N768   1.157       .  T
C769        C770   1.410       .  A
C769        C774   1.413       .  A
C770        C771   1.406       .  A
C770        H775   1.082       .  S
C771        C772   1.413       .  A
C771        C778   1.444       .  S
C772        C773   1.408       .  A
C773        C774   1.403       .  A
C773        H776   1.081       .  S
C774        C777   1.444       .  S
C777        N779   1.157       .  T
C778        N780   1.157       .  T
C781        C782   1.410       .  A
C781        C786   1.416       .  A
C782        C783   1.409       .  A
C782        H787   1.084       .  S
C783        C784   1.415       .  A
C783        C790   1.444       .  S
C784        C785   1.406       .  A
C785        C786   1.402       .  A
C785        H788   1.084       .  S
C786        C789   1.444       .  S
C789        N791   1.157       .  T
C790        N792   1.157       .  T
C793        C794   1.405       .  A
C793        C798   1.413       .  A
C794        C795   1.398       .  A
C794        H799   1.086       .  S
C795        C796   1.416       .  A
C795        C802   1.445       .  S
C796        C797   1.408       .  A
C797        C798   1.403       .  A
C797        H800   1.084       .  S
C798        C801   1.444       .  S
C801        N803   1.157       .  T
C802        N804   1.158       .  T
C805        C806   1.406       .  A
C805        C810   1.414       .  A
C806        C807   1.404   1_655  A
C806        H811   1.085       .  S
C807        C808   1.414       .  A
C807        C814   1.444       .  S
C808        C809   1.405       .  A
C809        C810   1.400   1_455  A
C809        H812   1.086       .  S
C810        C813   1.445       .  S
C813        N815   1.157       .  T
C814        N816   1.157       .  T
C817        C818   1.409       .  A
C817        C822   1.413       .  A
C818        C819   1.404       .  A
C818        H823   1.084       .  S
C819        C820   1.414       .  A
C819        C826   1.443       .  S
C820        C821   1.411       .  A
C821        C822   1.404       .  A
C821        H824   1.082       .  S
C822        C825   1.444       .  S
C825        N827   1.157       .  T
C826        N828   1.157       .  T
C829        C830   1.406       .  A
C829        C834   1.414       .  A
C830        C831   1.405   1_655  A
C830        H835   1.084       .  S
C831        C832   1.416       .  A
C831        C838   1.443       .  S
C832        C833   1.408       .  A
C833        C834   1.399   1_455  A
C833        H836   1.084       .  S
C834        C837   1.446       .  S
C837        N839   1.158       .  T
C838        N840   1.157       .  T
C841        C842   1.405       .  A
C841        C846   1.414       .  A
C842        C843   1.397       .  A
C842        H847   1.085       .  S
C843        C844   1.414       .  A
C843        C850   1.444       .  S
C844        C845   1.406       .  A
C845        C846   1.397       .  A
C845        H848   1.086       .  S
C846        C849   1.445       .  S
C849        N851   1.158       .  T
C850        N852   1.157       .  T
C853        C854   1.407       .  A
C853        C858   1.411       .  A
C854        C855   1.408   1_545  A
C854        H859   1.084       .  S
C855        C856   1.417       .  A
C855        C862   1.444       .  S
C856        C857   1.406       .  A
C857        C858   1.398   1_565  A
C857        H860   1.084       .  S
C858        C861   1.444       .  S
C861        N863   1.157       .  T
C862        N864   1.157       .  T
C865        C866   1.404       .  A
C865        C870   1.413       .  A
C866        C867   1.397       .  A
C866        H871   1.086       .  S
C867        C868   1.415       .  A
C867        C874   1.445       .  S
C868        C869   1.407       .  A
C869        C870   1.400       .  A
C869        H872   1.085       .  S
C870        C873   1.444       .  S
C873        N875   1.157       .  T
C874        N876   1.157       .  T
C877        C878   1.407       .  A
C877        C882   1.411       .  A
C878        C879   1.399       .  A
C878        H883   1.083       .  S
C879        C880   1.414       .  A
C879        C886   1.445       .  S
C880        C881   1.411       .  A
C881        C882   1.403       .  A
C881        H884   1.082       .  S
C882        C885   1.444       .  S
C885        N887   1.157       .  T
C886        N888   1.157       .  T
C889        C890   1.402       .  A
C889        C894   1.408       .  A
C890        C891   1.397       .  A
C890        H895   1.081       .  S
C891        C892   1.417       .  A
C891        C898   1.446       .  S
C892        C893   1.407       .  A
C893        C894   1.410       .  A
C893        H896   1.084       .  S
C894        C897   1.442       .  S
C897        N899   1.157       .  T
C898        N900   1.157       .  T
C901        C902   1.406       .  A
C901        C906   1.416       .  A
C902        C903   1.398       .  A
C902        H907   1.084       .  S
C903        C904   1.419       .  A
C903        C910   1.445       .  S
C904        C905   1.409       .  A
C905        C906   1.414       .  A
C905        H908   1.084       .  S
C906        C909   1.442       .  S
C909        N911   1.157       .  T
C910        N912   1.157       .  T
C913        C914   1.416       .  A
C913        C918   1.423       .  A
C914        C915   1.412       .  A
C914        H919   1.084       .  S
C915        C916   1.414       .  A
C915        C922   1.443       .  S
C916        C917   1.402       .  A
C917        C918   1.399       .  A
C917        H920   1.086       .  S
C918        C921   1.439       .  S
C921        N923   1.157       .  T
C922        N924   1.157       .  T
C925        C926   1.402       .  A
C925        C930   1.416       .  A
C926        C927   1.399       .  A
C926        H931   1.077       .  S
C927        C928   1.423       .  A
C927        C934   1.439       .  S
C928        C929   1.412       .  A
C929        C930   1.409       .  A
C929        H932   1.081       .  S
C930        C933   1.443       .  S
C933        N935   1.157       .  T
C934        N936   1.157       .  T
C937        C938   1.408       .  A
C937        C942   1.422       .  A
C938        C939   1.413       .  A
C938        H943   1.085       .  S
C939        C940   1.418       .  A
C939        C946   1.442       .  S
C940        C941   1.405       .  A
C941        C942   1.398       .  A
C941        H944   1.084       .  S
C942        C945   1.444       .  S
C945        N947   1.157       .  T
C946        N948   1.157       .  T
C949        C950   1.405       .  A
C949        C954   1.413       .  A
C950        C951   1.397       .  A
C950        H955   1.085       .  S
C951        C952   1.416       .  A
C951        C958   1.443       .  S
C952        C953   1.408       .  A
C953        C954   1.414       .  A
C953        H956   1.084       .  S
C954        C957   1.443       .  S
C957        N959   1.157       .  T
C958        N960   1.157       .  T
C961        C962   1.402       .  A
C961        C966   1.416       .  A
C962        C963   1.402       .  A
C962        H967   1.071       .  S
C963        C964   1.422       .  A
C963        C970   1.437       .  S
C964        C965   1.416       .  A
C965        C966   1.411       .  A
C965        H968   1.079       .  S
C966        C969   1.444       .  S
C969        N971   1.158       .  T
C970        N972   1.156       .  T
C973        C974   1.413       .  A
C973        C978   1.421       .  A
C974        C975   1.408       .  A
C974        H979   1.086       .  S
C975        C976   1.415       .  A
C975        C982   1.443       .  S
C976        C977   1.402       .  A
C977        C978   1.399       .  A
C977        H980   1.086       .  S
C978        C981   1.438       .  S
C981        N983   1.157       .  T
C982        N984   1.157       .  T
C985        C986   1.411       .  A
C985        C990   1.417       .  A
C986        C987   1.414       .  A
C986        H991   1.085       .  S
C987        C988   1.414       .  A
C987        C994   1.443       .  S
C988        C989   1.405       .  A
C989        C990   1.394       .  A
C989        H992   1.084       .  S
C990        C993   1.443       .  S
C993        N995   1.157       .  T
C994        N996   1.157       .  T
C997        C998   1.406       .  A
C997       C1002   1.416       .  A
C998        C999   1.410       .  A
C998       H1003   1.085       .  S
C999       C1000   1.411       .  A
C999       C1006   1.442       .  S
C1000      C1001   1.403       .  A
C1001      C1002   1.394       .  A
C1001      H1004   1.086       .  S
C1002      C1005   1.443       .  S
C1005      N1007   1.157       .  T
C1006      N1008   1.157       .  T
C1009      C1010   1.406       .  A
C1009      C1014   1.411       .  A
C1010      C1011   1.396       .  A
C1010      H1015   1.085       .  S
C1011      C1012   1.416       .  A
C1011      C1018   1.443       .  S
C1012      C1013   1.409       .  A
C1013      C1014   1.413       .  A
C1013      H1016   1.084       .  S
C1014      C1017   1.442       .  S
C1017      N1019   1.157       .  T
C1018      N1020   1.157       .  T
C1021      C1022   1.409       .  A
C1021      C1026   1.419       .  A
C1022      C1023   1.415       .  A
C1022      H1027   1.084       .  S
C1023      C1024   1.418       .  A
C1023      C1030   1.442       .  S
C1024      C1025   1.405       .  A
C1025      C1026   1.397       .  A
C1025      H1028   1.084       .  S
C1026      C1029   1.444       .  S
C1029      N1031   1.157       .  T
C1030      N1032   1.158       .  T
