geometry optimzed in LAMMPS
_audit_creation_date              2020-11-30 
_audit_creation_method            'lammps2cif' 
_symmetry_space_group_name_H-M    'P1' 
_symmetry_Int_Tables_number       1 
_symmetry_cell_setting            triclinic 
loop_ 
_symmetry_equiv_pos_as_xyz 
  x,y,z 
_cell_length_a                    32.87356429 
_cell_length_b                    34.18031154333923 
_cell_length_c                    45.423778428819666 
_cell_angle_alpha                 90.38805779458488 
_cell_angle_beta                  89.73297386850226 
_cell_angle_gamma                 81.41721700316621 
loop_ 
_atom_site_label 
_atom_site_type_symbol 
_atom_site_fract_x 
_atom_site_fract_y 
_atom_site_fract_z 
_atom_site_charge 
O1          O  0.19001853  0.33577655  0.60899500    -0.77600
C2          C  0.32078320  0.31994296  0.62021006     0.83400
O3          O  0.24905615  0.21897880  0.54979463    -0.78700
O4          O  0.32915170  0.19400584  0.64067948    -0.80200
O5          O  0.21006786  0.24833309  0.69247566    -0.80000
O6          O  0.15693799  0.30377824  0.64183492    -0.78600
Zn7        Zn  0.24032445  0.29752307  0.59667452     1.55700
O8          O  0.27674772  0.25297637  0.69254931    -0.80000
Cd9        Cd  0.19482237  0.25016656  0.64737323     1.59700
Cd10       Cd  0.24990946  0.20304833  0.59383358     1.59600
O11         O  0.16393661  0.20276421  0.63598885    -0.80000
O12         O  0.24387336  0.25018626  0.62105003    -1.90500
Cd13       Cd  0.29202697  0.24714362  0.64781764     1.59900
O14         O  0.20129091  0.17212957  0.59910129    -0.80000
O15         O  0.32552346  0.29153473  0.63843536    -0.78600
C16         C  0.24193976  0.25274096  0.53756864     0.83900
C17         C  0.15997973  0.33459717  0.62670087     0.83500
O18         O  0.29032965  0.32525353  0.60263971    -0.77600
C19         C  0.24310842  0.25183027  0.70637998     0.84400
O20         O  0.23683488  0.28469819  0.55274758    -0.77700
C21         C  0.17039052  0.17538429  0.61639991     0.84500
C22         C  0.33057125  0.16531933  0.62239092     0.84800
O23         O  0.30329203  0.16465973  0.60262679    -0.80100
C24         C  0.02986776  0.47183175  0.64062030     0.30900
C25         C  0.46508354  0.03360520  0.63723994     0.30900
C26         C  0.48808249  0.46084297  0.63251756    -0.05300
C27         C  0.02162921  0.49418374  0.67001280    -0.06100
C28         C  0.03388823  0.00487020  0.61753005    -0.06000
C29         C  0.45476852  0.49105092  0.63360715    -0.05300
C30         C  0.48638719  0.02473182  0.66707398    -0.06100
C31         C  0.00130443  0.03671060  0.61616719    -0.06000
C32         C  0.41984413  0.47323826  0.63177636    -0.31400
N33         N  0.43133678  0.43389430  0.62799109     0.15100
C34         C  0.47293741  0.42583984  0.62797348    -0.31400
H35         H  0.49034056  0.39686358  0.62584242     0.17100
C36         C  0.47902100  0.03607804  0.69575690    -0.30400
N37         N  0.01251150  0.51662208  0.71553453     0.13900
C38         C  0.03776906  0.49173411  0.69787731    -0.30300
C39         C  0.01909193  0.06998491  0.61026755    -0.30600
N40         N  0.06037297  0.06035469  0.60966175     0.14400
H41         H  0.00328200  0.09989360  0.60964969     0.17000
C42         C  0.06971989  0.02128082  0.61449894    -0.30600
H43         H  0.10055835  0.00662420  0.61981010     0.17000
H44         H  0.06455425  0.47190888  0.70524798     0.17000
H45         H  0.38793392  0.48760892  0.63425350     0.17100
H46         H  0.45169952  0.05490028  0.70416955     0.17000
O47         O  0.04485088  0.09650459  0.94202462    -0.77600
C48         C  0.41534088  0.10177007  0.91768877     0.83400
O49         O  0.01019173  0.48634550  0.99169642    -0.78700
O50         O  0.42246794  0.47549065  0.90524701    -0.80200
O51         O  0.03942279  0.02073314  0.85285160    -0.80000
O52         O  0.08462492  0.06411047  0.90735309    -0.78600
Zn53       Zn  0.99649958  0.06681026  0.94792576     1.55700
O54         O  0.47223079  0.01827058  0.85264101    -0.80000
Cd55       Cd  0.05363436  0.01822235  0.89716291     1.59700
Cd56       Cd  0.00764208  0.47257144  0.94784643     1.59600
O57         O  0.09319051  0.46608697  0.90559859    -0.80000
O58         O  0.00386597  0.02045332  0.92261741    -1.90500
Cd59       Cd  0.45590757  0.02139099  0.89593921     1.59900
O60         O  0.05919693  0.43347661  0.93720630    -0.80000
O61         O  0.41558507  0.07235927  0.90047823    -0.78600
C62         C  0.00175207  0.01847148  0.00523088     0.83900
C63         C  0.07711158  0.09239916  0.92583567     0.83500
O64         O  0.44378271  0.10291730  0.93667821    -0.77600
C65         C  0.00552992  0.51664470  0.84099133     0.84400
O66         O  0.99572484  0.05140116  0.99156708    -0.77700
C67         C  0.09013984  0.43537358  0.92067872     0.84500
C68         C  0.42806978  0.44735034  0.92356684     0.84800
O69         O  0.45836235  0.44330784  0.94119833    -0.80100
C70         C  0.28335648  0.23684347  0.91047997     0.30900
C71         C  0.21929987  0.29793113  0.91025600     0.30900
C72         C  0.29354156  0.27699887  0.92031124    -0.05300
C73         C  0.26312627  0.24714258  0.87998286    -0.06100
C74         C  0.24651427  0.23134786  0.93021461    -0.06000
C75         C  0.26087402  0.30769998  0.92089042    -0.05300
C76         C  0.22952264  0.27741947  0.88017946    -0.06100
C77         C  0.21315415  0.26228081  0.92964361    -0.06000
C78         C  0.27663984  0.34161689  0.92771568    -0.31400
N79         N  0.31813007  0.33261139  0.92973119     0.15100
C80         C  0.32889290  0.29331207  0.92471973    -0.31400
H81         H  0.36001798  0.27855030  0.92183997     0.17100
C82         C  0.21470640  0.28097565  0.85167838    -0.30400
N83         N  0.24008672  0.25611515  0.83387012     0.13900
C84         C  0.27013800  0.23616264  0.85072688    -0.30300
C85         C  0.17826843  0.24453614  0.93336086    -0.30600
N86         N  0.18904279  0.20548345  0.93823224     0.14400
H87         H  0.14715775  0.25799379  0.92814941     0.17000
C88         C  0.23047151  0.19708510  0.93571770    -0.30600
H89         H  0.24727780  0.16750796  0.93374845     0.17000
H90         H  0.29621581  0.21616569  0.84184291     0.17000
H91         H  0.25968489  0.37124134  0.92889825     0.17100
H92         H  0.18801164  0.30047043  0.84426930     0.17000
O93         O  0.06328790  0.43104522  0.10276109    -0.77600
C94         C  0.43286579  0.44077132  0.11433535     0.83400
O95         O  0.49631423  0.05097770  0.05192828    -0.78700
O96         O  0.41475816  0.06640272  0.14125183    -0.80200
O97         O  0.03447310  0.01399670  0.19260271    -0.80000
O98         O  0.09357257  0.46098838  0.13839999    -0.78600
Zn99       Zn  0.51161389  0.46837282  0.09320682     1.55700
O100        O  0.46741836  0.00970797  0.19103974    -0.80000
Cd101      Cd  0.05262210  0.01180166  0.14816390     1.59700
Cd102      Cd  0.49943837  0.06241727  0.09677145     1.59600
O103        O  0.08586367  0.05764853  0.13881929    -0.80000
O104        O  0.50513118  0.01363292  0.12092933    -1.90500
Cd105      Cd  0.45538997  0.01510692  0.14636113     1.59900
O106        O  0.05003583  0.09020930  0.10257920    -0.80000
O107        O  0.42588589  0.46856590  0.13325576    -0.78600
C108        C  0.50268472  0.01837702  0.03771903     0.83900
C109        C  0.09237868  0.43150343  0.12113353     0.83500
O110        O  0.46405829  0.43727990  0.09727407    -0.77600
C111        C  0.50010427  0.01113894  0.20564303     0.84400
O112        O  0.51277546  0.48562544  0.05069808    -0.77700
C113        C  0.08093198  0.08516480  0.11968914     0.84500
C114        C  0.41656097  0.09716404  0.12600005     0.84800
O115        O  0.44687230  0.09993567  0.10889686    -0.80100
C116        C  0.22283101  0.29469156  0.13255739     0.30900
C117        C  0.28714171  0.23382305  0.13226863     0.30900
C118        C  0.26294316  0.30306712  0.11781360    -0.05300
C119        C  0.23710942  0.27868939  0.16301484    -0.06100
C120        C  0.21501831  0.25629595  0.11687568    -0.06000
C121        C  0.29604276  0.27206848  0.11846927    -0.05300
C122        C  0.27095987  0.24877814  0.16307402    -0.06100
C123        C  0.24847356  0.22560414  0.11623409    -0.06000
C124        C  0.33140357  0.28904049  0.11868951    -0.31400
N125        N  0.32107536  0.32841619  0.11578362     0.15100
C126        C  0.27970359  0.33747516  0.11509671    -0.31400
H127        H  0.26315301  0.36717119  0.11421912     0.17100
C128        C  0.28108261  0.24141879  0.19230204    -0.30400
N129        N  0.25259792  0.26365101  0.20960284     0.13900
C130        C  0.22483339  0.28519697  0.19184670    -0.30300
C131        C  0.23301142  0.19055155  0.11324391    -0.30600
N132        N  0.19169245  0.19853904  0.11230358     0.14400
H133        H  0.25017057  0.16113092  0.11544509     0.17000
C134        C  0.18024987  0.23790235  0.11588469    -0.30600
H135        H  0.14903996  0.25156523  0.12071566     0.17000
H136        H  0.19701344  0.30342848  0.19946652     0.17000
H137        H  0.36218950  0.27420607  0.12304073     0.17100
H138        H  0.30672968  0.22115056  0.20056875     0.17000
C139        C  0.45969591  0.03948486  0.40848195     0.30900
C140        C  0.02199082  0.47432697  0.40813398     0.30900
C141        C  0.44935075  0.00067998  0.42119121    -0.05300
C142        C  0.47838427  0.02513565  0.37845200    -0.06100
C143        C  0.99721827  0.04668917  0.42702231    -0.06000
C144        C  0.48156211  0.46829911  0.42297086    -0.05300
C145        C  0.00786444  0.48824537  0.37692585    -0.06100
C146        C  0.03015694  0.01531684  0.42722284    -0.06000
C147        C  0.46363668  0.43453466  0.42526851    -0.31400
N148        N  0.42242660  0.44497862  0.42560477     0.15100
C149        C  0.41346099  0.48438629  0.42213947    -0.31400
H150        H  0.38309800  0.99991820  0.41548055     0.17100
C151        C  0.01944664  0.47894298  0.34813367    -0.30400
N152        N  0.49808947  0.01000024  0.33249686     0.13900
C153        C  0.46856432  0.03127364  0.34928696    -0.30300
C154        C  0.06547334  0.03245213  0.42889460    -0.30600
N155        N  0.05529244  0.07191083  0.43210201     0.14400
H156        H  0.09636643  0.01776660  0.42390101     0.17000
C157        C  0.01396952  0.08092267  0.43068953    -0.30600
H158        H  0.99759442  0.11070520  0.42905946     0.17000
H159        H  0.44089162  0.04834836  0.34065474     0.17000
H160        H  0.47918388  0.40438557  0.42361098     0.17100
H161        H  0.04532821  0.45772473  0.34067006     0.17000
O162        O  0.19641075  0.18143586  0.43752507    -0.77600
C163        C  0.32626287  0.17349017  0.41978235     0.83400
O164        O  0.23399702  0.28840045  0.49258699    -0.78700
O165        O  0.31837818  0.30327678  0.40578850    -0.80200
O166        O  0.20735892  0.25789007  0.34958602    -0.80000
O167        O  0.16043397  0.21193389  0.40083468    -0.78600
Zn168      Zn  0.24414070  0.20957006  0.44616510     1.55700
O169        O  0.27470029  0.25793686  0.35122193    -0.80000
Cd170      Cd  0.19195456  0.25814121  0.39379652     1.59700
Cd171      Cd  0.23249204  0.30345893  0.44809936     1.59600
O172        O  0.15167375  0.30859444  0.40075846    -0.80000
O173        O  0.23958855  0.25612622  0.42147433    -1.90500
Cd174      Cd  0.28895716  0.25543135  0.39601954     1.59900
O175        O  0.17746067  0.33881426  0.43838630    -0.80000
O176        O  0.32808792  0.20348214  0.40349526    -0.78600
C177        C  0.23987527  0.25473332  0.50505629     0.83900
C178        C  0.16639690  0.18434176  0.41960484     0.83500
O179        O  0.29587019  0.17191463  0.43697468    -0.77600
C180        C  0.24156869  0.25847636  0.33655530     0.84400
O181        O  0.24430442  0.22267263  0.49005399    -0.77700
C182        C  0.14986120  0.33724330  0.41887604     0.84500
C183        C  0.31086023  0.33217323  0.42388511     0.84800
O184        O  0.27975984  0.33614407  0.44112158    -0.80100
C185        C  0.07740353  0.12729226  0.40601526    -0.11400
C186        C  0.08339603  0.09965283  0.42873654     0.05600
C187        C  0.11750683  0.09872723  0.44723649    -0.06700
C188        C  0.14447057  0.12603332  0.44332525    -0.07400
C189        C  0.13785836  0.15493591  0.42126994    -0.02000
C190        C  0.10380380  0.15522608  0.40224900     0.04800
N191        N  0.09505943  0.18345033  0.37916043     0.67300
H192        H  0.05263594  0.12681927  0.39094401     0.16200
H193        H  0.17016440  0.12500773  0.45825345     0.15900
N194        N  0.12426890  0.07135637  0.47092339     0.75000
O195        O  0.10895820  0.17464724  0.35363970    -0.38400
O196        O  0.06529126  0.21113533  0.38224548    -0.38300
O197        O  0.15499821  0.04441133  0.46991195    -0.39100
O198        O  0.10680215  0.08035054  0.49534738    -0.39100
C199        C  0.11043358  0.39910019  0.43899356    -0.11400
C200        C  0.11532291  0.37022697  0.41675186     0.05600
C201        C  0.08740621  0.37402754  0.39296774    -0.05500
C202        C  0.05769166  0.40759057  0.39089695    -0.07400
C203        C  0.05518988  0.43841508  0.41169311    -0.02000
C204        C  0.07998516  0.43213064  0.43731738     0.04800
N205        N  0.07359335  0.45736748  0.46270166     0.67300
H206        H  0.12968206  0.39569058  0.45827868     0.16200
H207        H  0.03581991  0.40874045  0.37324773     0.15900
N208        N  0.08842353  0.34431260  0.37058344     0.75000
O209        O  0.54486578  0.45359766  0.48030451    -0.38400
O210        O  0.60326047  0.47417509  0.47202825    -0.38300
O211        O  0.06465451  0.31866903  0.37267047    -0.39100
O212        O  0.10485680  0.34953814  0.34604844    -0.39100
C213        C  0.39700742  0.07650488  0.43388304    -0.11400
C214        C  0.42467924  0.07469756  0.40989852     0.05600
C215        C  0.42125605  0.10815803  0.39098929    -0.06700
C216        C  0.38867788  0.13907705  0.39473565    -0.07400
C217        C  0.36006775  0.13951728  0.41771169    -0.02000
C218        C  0.36494848  0.10788953  0.43780205     0.04800
N219        N  0.33927405  0.10780705  0.46326703     0.67300
H220        H  0.40068514  0.05378454  0.45050378     0.16200
H221        H  0.38661919  0.16369487  0.37967247     0.15900
N222        N  0.45157084  0.11396272  0.36938999     0.75000
O223        O  0.31250697  0.08492066  0.46388298    -0.38400
O224        O  0.35081002  0.12148786  0.48718140    -0.38300
O225        O  0.44044087  0.11781638  0.34287499    -0.39100
O226        O  0.48081840  0.13138306  0.37745121    -0.39100
C227        C  0.37273200  0.41076788  0.45045338    -0.11400
C228        C  0.39325314  0.41820959  0.42467820     0.05600
C229        C  0.38611527  0.39863752  0.39843210    -0.06700
C230        C  0.35926297  0.37050411  0.39846735    -0.07400
C231        C  0.33891281  0.36219030  0.42452604    -0.02000
C232        C  0.34567803  0.38296862  0.45064934     0.04800
N233        N  0.32816869  0.37386794  0.47807939     0.67300
H234        H  0.37878066  0.42582449  0.47066162     0.16200
H235        H  0.35395637  0.35547877  0.37805320     0.15900
N236        N  0.40567563  0.40774909  0.37170305     0.75000
O237        O  0.34710023  0.34646011  0.49341424    -0.38400
O238        O  0.30060281  0.39871394  0.48993645    -0.38300
O239        O  0.44008473  0.38836238  0.36463707    -0.39100
O240        O  0.39317890  0.43985500  0.35879927    -0.39100
C241        C  0.28109042  0.26316850  0.28988788    -0.11400
C242        C  0.24328120  0.25996803  0.30365888     0.05600
C243        C  0.20836534  0.25893186  0.28554050    -0.06700
C244        C  0.21227626  0.25997691  0.25481582    -0.07400
C245        C  0.25013341  0.26267299  0.24129166    -0.02000
C246        C  0.28465173  0.26498154  0.25917340     0.04800
N247        N  0.32280986  0.27216985  0.24675690     0.67300
H248        H  0.30807173  0.26519502  0.30296950     0.16200
H249        H  0.18551829  0.25847690  0.24137999     0.15900
N250        N  0.16848552  0.25716430  0.29762812     0.75000
O251        O  0.32880742  0.30747796  0.24335544    -0.38400
O252        O  0.35334499  0.24501049  0.24713186    -0.38300
O253        O  0.14273597  0.28844992  0.29903230    -0.39100
O254        O  0.15576534  0.22416258  0.29888344    -0.39100
C255        C  0.02877975  0.02788035  0.25437938    -0.11400
C256        C  0.49858412  0.01046341  0.23849662     0.05600
C257        C  0.46846369  0.48814408  0.25084281    -0.06700
C258        C  0.46716410  0.48724096  0.28174024    -0.07400
C259        C  0.49893283  0.00989482  0.30090209    -0.02000
C260        C  0.02909404  0.02789020  0.28524943     0.04800
N261        N  0.05908093  0.04649086  0.30041975     0.67300
H262        H  0.05179497  0.04148693  0.24280937     0.16200
H263        H  0.44265913  0.47523621  0.29270047     0.15900
N264        N  0.43689418  0.47269069  0.23488935     0.75000
O265        O  0.09465596  0.02758981  0.30412958    -0.38400
O266        O  0.05320359  0.08359238  0.30376922    -0.38300
O267        O  0.43684007  0.43578763  0.23404909    -0.39100
O268        O  0.40465526  0.49560004  0.22799967    -0.39100
C269        C  0.14882156  0.15560876  0.08850213    -0.11400
C270        C  0.16490685  0.16948300  0.11422116     0.05600
C271        C  0.15542465  0.15434268  0.14162434    -0.06700
C272        C  0.12899043  0.12583399  0.14310797    -0.07400
C273        C  0.11146855  0.11265552  0.11735925    -0.02000
C274        C  0.12219181  0.12739985  0.08976387     0.04800
N275        N  0.10738712  0.11327880  0.06274700     0.67300
H276        H  0.15696064  0.16689932  0.06739801     0.16200
H277        H  0.12118126  0.11487966  0.16443390     0.15900
N278        N  0.17193739  0.16858187  0.16798013     0.75000
O279        O  0.07583004  0.13241825  0.05108442    -0.38400
O280        O  0.13133106  0.08919949  0.04714450    -0.38300
O281        O  0.15485292  0.20069153  0.17934941    -0.39100
O282        O  0.20785002  0.15432183  0.17580674    -0.39100
C283        C  0.15534018  0.39694492  0.14506644    -0.11400
C284        C  0.12525054  0.39664834  0.12336027     0.05600
C285        C  0.12731905  0.36302870  0.10488712    -0.06700
C286        C  0.15894021  0.33125515  0.10838578    -0.07400
C287        C  0.18821494  0.33033592  0.13107877    -0.02000
C288        C  0.18657824  0.36489563  0.14910799     0.04800
N289        N  0.21694162  0.36998414  0.17070803     0.67300
H290        H  0.15509463  0.42258581  0.15917807     0.16200
H291        H  0.16066535  0.30765823  0.09239356     0.15900
N292        N  0.09775504  0.36017873  0.08231086     0.75000
O293        O  0.24472869  0.38975376  0.16341201    -0.38400
O294        O  0.20615067  0.37132383  0.19743562    -0.38300
O295        O  0.10776281  0.36446996  0.05581036    -0.39100
O296        O  0.06702946  0.34329422  0.08795703    -0.39100
C297        C  0.32387893  0.16937386  0.15197156    -0.11400
C298        C  0.32132588  0.19844121  0.13008136     0.05600
C299        C  0.34687638  0.19042028  0.10476309    -0.06700
C300        C  0.37746964  0.15734659  0.10417823    -0.07400
C301        C  0.38255411  0.13069680  0.12765127    -0.02000
C302        C  0.35471288  0.13660890  0.15156717     0.04800
N303        N  0.35803366  0.11086871  0.17636506     0.67300
H304        H  0.30137787  0.17126345  0.16941835     0.16200
H305        H  0.39689219  0.15216176  0.08482649     0.15900
N306        N  0.34124591  0.21391577  0.07873082     0.75000
O307        O  0.37523632  0.12118529  0.19933181    -0.38400
O308        O  0.33418485  0.08528422  0.17831341    -0.38300
O309        O  0.36927447  0.23331045  0.07101875    -0.39100
O310        O  0.31637048  0.20530552  0.05950920    -0.39100
C311        C  0.38540151  0.40340095  0.14024856    -0.11400
C312        C  0.40449094  0.41126946  0.11366021     0.05600
C313        C  0.39608271  0.39069126  0.08785607    -0.06700
C314        C  0.36839876  0.36342161  0.08907970    -0.07400
C315        C  0.34942211  0.35603210  0.11562088    -0.02000
C316        C  0.35839506  0.37570242  0.14151209     0.04800
N317        N  0.34176247  0.36692318  0.16941864     0.67300
H318        H  0.39227879  0.41807766  0.16040428     0.16200
H319        H  0.36136253  0.34809185  0.06927293     0.15900
N320        N  0.41396560  0.39801406  0.06010743     0.75000
O321        O  0.35871018  0.33693636  0.18315729    -0.38400
O322        O  0.32026812  0.39438710  0.18372062    -0.38300
O323        O  0.44233318  0.37269301  0.04968771    -0.39100
O324        O  0.39440022  0.42300493  0.04306795    -0.39100
C325        C  0.09795706  0.15249074  0.94916582    -0.11400
C326        C  0.10663951  0.12108682  0.92883831     0.05600
C327        C  0.14353053  0.11783792  0.91212021    -0.06700
C328        C  0.17010175  0.14567555  0.91581679    -0.07400
C329        C  0.16133202  0.17687243  0.93605660    -0.02000
C330        C  0.12481042  0.18024520  0.95288358     0.04800
N331        N  0.11500881  0.21085581  0.97445584     0.67300
H332        H  0.07018692  0.15563876  0.96244174     0.16200
H333        H  0.19764191  0.14314999  0.90239587     0.15900
N334        N  0.15501096  0.08649424  0.89135932     0.75000
O335        O  0.09031645  0.24138381  0.96781526    -0.38400
O336        O  0.12082158  0.20250201  0.00127542    -0.38300
O337        O  0.15135555  0.09366248  0.86420590    -0.39100
O338        O  0.17804139  0.05566516  0.89956797    -0.39100
C339        C  0.37738837  0.16470685  0.93755633    -0.11400
C340        C  0.38124633  0.13540411  0.91560616     0.05600
C341        C  0.35136205  0.13833563  0.89304966    -0.06700
C342        C  0.32033497  0.17090368  0.89223885    -0.07400
C343        C  0.31826402  0.20199078  0.91274155    -0.02000
C344        C  0.34543041  0.19667564  0.93715704     0.04800
N345        N  0.33903922  0.22070858  0.96315164     0.67300
H346        H  0.39810193  0.16188885  0.95611094     0.16200
H347        H  0.29633516  0.17028009  0.87612016     0.15900
N348        N  0.35086728  0.10825966  0.87110567     0.75000
O349        O  0.31278823  0.21299138  0.98174638    -0.38400
O350        O  0.36758705  0.23880104  0.97182584    -0.38300
O351        O  0.32756607  0.08249665  0.87482629    -0.39100
O352        O  0.36302841  0.11447455  0.84540569    -0.39100
C353        C  0.15739459  0.33731784  0.93540410    -0.11400
C354        C  0.18545227  0.33403297  0.91165758     0.05600
C355        C  0.18338880  0.36667192  0.89209876    -0.06700
C356        C  0.15219107  0.39914033  0.89559824    -0.07400
C357        C  0.12302476  0.40076103  0.91840746    -0.02000
C358        C  0.12598924  0.36920465  0.93844520     0.04800
N359        N  0.09813626  0.36911934  0.96269013     0.67300
H360        H  0.16008316  0.31584929  0.95274255     0.16200
H361        H  0.15108249  0.42334291  0.88032179     0.15900
N362        N  0.21328914  0.36899313  0.86938484     0.75000
O363        O  0.06954583  0.34833722  0.96102636    -0.38400
O364        O  0.10820319  0.38103420  0.98758396    -0.38300
O365        O  0.20180514  0.36860931  0.84293297    -0.39100
O366        O  0.24344800  0.38647817  0.87521249    -0.39100
C367        C  0.40566318  0.38797460  0.94567279    -0.11400
C368        C  0.39913375  0.41819668  0.92459275     0.05600
C369        C  0.36553265  0.41923889  0.90511133    -0.06700
C370        C  0.33949514  0.39077125  0.90735994    -0.07400
C371        C  0.34582808  0.36111363  0.92862603    -0.02000
C372        C  0.37951967  0.35950397  0.94773654     0.04800
N373        N  0.38734319  0.32980238  0.96976273     0.67300
H374        H  0.43113620  0.38626676  0.96082480     0.16200
H375        H  0.31456404  0.39147220  0.89209771     0.15900
N376        N  0.35710471  0.44860472  0.88281269     0.75000
O377        O  0.41540072  0.30093677  0.96514963    -0.38400
O378        O  0.37640270  0.33857652  0.99594264    -0.38300
O379        O  0.36915146  0.44020463  0.85680031    -0.39100
O380        O  0.32889729  0.47741818  0.88719321    -0.39100
C381        C  0.47637719  0.50837652  0.76083600    -0.11400
C382        C  0.01197923  0.51567828  0.74688785     0.05600
C383        C  0.04512459  0.01969550  0.76054769    -0.06700
C384        C  0.04352043  0.01986168  0.79131696    -0.07400
C385        C  0.00694737  0.51576287  0.80858158    -0.02000
C386        C  0.47337387  0.50862375  0.79134382     0.04800
N387        N  0.43559405  0.50114569  0.80427376     0.67300
H388        H  0.45049156  0.50223200  0.74796328     0.16200
H389        H  0.07162168  0.02100655  0.80332826     0.15900
N390        N  0.08312537  0.02350367  0.74628340     0.75000
O391        O  0.40655194  0.52948619  0.80756243    -0.38400
O392        O  0.42774981  0.46613158  0.80483695    -0.38300
O393        O  0.09394353  0.05732877  0.74465665    -0.39100
O394        O  0.10996353  0.99327056  0.74310529    -0.39100
C395        C  0.21360049  0.23549692  0.75507022    -0.11400
C396        C  0.24229224  0.25417114  0.73938704     0.05600
C397        C  0.26957319  0.27435129  0.75573935    -0.06700
C398        C  0.26792817  0.27499839  0.78669173    -0.07400
C399        C  0.23967422  0.25588004  0.80210190    -0.02000
C400        C  0.21233493  0.23599209  0.78605864     0.04800
N401        N  0.18416886  0.21479934  0.80088621     0.67300
H402        H  0.19266192  0.21961770  0.74328625     0.16200
H403        H  0.28884724  0.29052078  0.79885728     0.15900
N404        N  0.29849316  0.29531618  0.74147224     0.75000
O405        O  0.14699295  0.23027068  0.80342571    -0.38400
O406        O  0.19376446  0.17801371  0.80450246    -0.38300
O407        O  0.28945448  0.33219854  0.73807455    -0.39100
O408        O  0.33572842  0.27968044  0.73995764    -0.39100
C409        C  0.39539765  0.13532374  0.64598991    -0.11400
C410        C  0.36506403  0.13211612  0.62490908     0.05600
C411        C  0.36948946  0.09807787  0.60674680    -0.06700
C412        C  0.40218380  0.06765531  0.61132788    -0.07400
C413        C  0.43061826  0.06900521  0.63433114    -0.02000
C414        C  0.42857243  0.10534926  0.65027726     0.04800
N415        N  0.46127372  0.11533789  0.66821302     0.67300
H416        H  0.39449157  0.16232164  0.65884245     0.16200
H417        H  0.40541562  0.04273012  0.59619289     0.15900
N418        N  0.34178145  0.09379733  0.58319850     0.75000
O419        O  0.45375974  0.12281986  0.69511227    -0.38400
O420        O  0.48765179  0.13313075  0.65596585    -0.38300
O421        O  0.35364155  0.09745975  0.55702969    -0.39100
O422        O  0.31124603  0.07626619  0.58792549    -0.39100
C423        C  0.10002596  0.37151088  0.65404565    -0.11400
C424        C  0.12785466  0.36994707  0.63034706     0.05600
C425        C  0.12375002  0.40195149  0.61063038    -0.06700
C426        C  0.09195858  0.43343659  0.61442434    -0.07400
C427        C  0.06476189  0.43632423  0.63872125    -0.02000
C428        C  0.06871891  0.40376217  0.65844422     0.04800
N429        N  0.04020552  0.40100928  0.68198686     0.67300
H430        H  0.10212478  0.34710163  0.66939047     0.16200
H431        H  0.08826678  0.45511627  0.59701254     0.15900
N432        N  0.15088741  0.40305998  0.58608355     0.75000
O433        O  0.01153531  0.38101243  0.67755888    -0.38400
O434        O  0.05259800  0.40358047  0.70807237    -0.38300
O435        O  0.13959013  0.39304193  0.56098063    -0.39100
O436        O  0.17916844  0.42419379  0.58787697    -0.39100
C437        C  0.36807741  0.35583954  0.64825880    -0.11400
C438        C  0.35047047  0.34844497  0.62103741     0.05600
C439        C  0.36049907  0.36944710  0.59603618    -0.06700
C440        C  0.38732109  0.39748390  0.59867293    -0.07400
C441        C  0.40410480  0.40512326  0.62595508    -0.02000
C442        C  0.39434511  0.38422335  0.65089358     0.04800
N443        N  0.40920911  0.39276854  0.67934588     0.67300
H444        H  0.36038763  0.34067729  0.66768196     0.16200
H445        H  0.39537356  0.41320058  0.57939438     0.15900
N446        N  0.34579022  0.36104697  0.56757125     0.75000
O447        O  0.38833921  0.41930030  0.69487481    -0.38400
O448        O  0.43491226  0.36714002  0.69177761    -0.38300
O449        O  0.31766140  0.38513811  0.55601328    -0.39100
O450        O  0.36733186  0.33550342  0.55162543    -0.39100
C451        C  0.12420135  0.13324308  0.63988810    -0.11400
C452        C  0.14179431  0.14582391  0.61403435     0.05600
C453        C  0.13316544  0.12844206  0.58676645    -0.06700
C454        C  0.10594394  0.10062016  0.58575375    -0.07400
C455        C  0.08869138  0.08823727  0.61155645    -0.02000
C456        C  0.09883082  0.10376744  0.63890141     0.04800
N457        N  0.08609608  0.08791027  0.66588799     0.67300
H458        H  0.13167089  0.14489685  0.66094171     0.16200
H459        H  0.09863825  0.08819174  0.56487441     0.15900
N460        N  0.15154697  0.13856403  0.55983825     0.75000
O461        O  0.10833130  0.05831531  0.67678215    -0.38400
O462        O  0.06047993  0.10903174  0.68227096    -0.38300
O463        O  0.18329693  0.11666230  0.55037084    -0.39100
O464        O  0.13046639  0.16162136  0.54222994    -0.39100
O465        O  0.18084427  0.83203733  0.60436532    -0.77600
C466        C  0.31127954  0.82601066  0.61723520     0.83400
O467        O  0.24894134  0.71771483  0.54818495    -0.78700
O468        O  0.32987141  0.69549274  0.63702256    -0.80200
O469        O  0.21087685  0.74739611  0.68886578    -0.80000
O470        O  0.15235225  0.80131559  0.64024121    -0.78600
Zn471      Zn  0.23418956  0.79766162  0.59402264     1.55700
O472        O  0.27763864  0.75117453  0.68762798    -0.80000
Cd473      Cd  0.19357001  0.74989597  0.64506753     1.59700
Cd474      Cd  0.24835284  0.70151625  0.59217235     1.59600
O475        O  0.16392945  0.70241229  0.63579339    -0.80000
O476        O  0.24146230  0.74986685  0.61801253    -1.90500
Cd477      Cd  0.29089128  0.74792761  0.64297270     1.59900
O478        O  0.19836757  0.67218292  0.59741912    -0.80000
O479        O  0.31974640  0.79521113  0.63303291    -0.78600
C480        C  0.24111022  0.75143317  0.53584068     0.83900
C481        C  0.15218502  0.83073619  0.62312526     0.83500
O482        O  0.27934001  0.83125292  0.60111905    -0.77600
C483        C  0.24467411  0.74941398  0.70203158     0.84400
O484        O  0.23417632  0.78354658  0.55070867    -0.77700
C485        C  0.16884177  0.67557823  0.61595957     0.84500
C486        C  0.32948891  0.66424043  0.62162183     0.84800
O487        O  0.30087024  0.66165537  0.60310290    -0.80100
C488        C  0.02718827  0.97080388  0.63818457     0.30900
C489        C  0.46456908  0.53264209  0.64106211     0.30900
C490        C  0.48485645  0.96129779  0.62966837    -0.05300
C491        C  0.01912509  0.99380733  0.66737135    -0.06100
C492        C  0.03385269  0.50671721  0.62015473    -0.06000
C493        C  0.45310454  0.99289329  0.62972140    -0.05300
C494        C  0.48748181  0.52441900  0.67035674    -0.06100
C495        C  0.99966429  0.53728230  0.61953546    -0.06000
C496        C  0.41681263  0.97708493  0.62853228    -0.31400
N497        N  0.42598325  0.93709751  0.62677227     0.15100
C498        C  0.46744166  0.92715576  0.62726785    -0.31400
H499        H  0.48368862  0.89708030  0.62694161     0.17100
C500        C  0.48114969  0.53568933  0.69912524    -0.30400
N501        N  0.00908819  0.01720168  0.71278116     0.13900
C502        C  0.03425545  0.99135435  0.69558787    -0.30300
C503        C  0.01520890  0.57190984  0.61391895    -0.30600
N504        N  0.05657969  0.56413141  0.61317689     0.14400
H505        H  0.99817611  0.60096993  0.61399286     0.17000
C506        C  0.06817498  0.52536684  0.61751496    -0.30600
H507        H  0.09959945  0.51249383  0.62278301     0.17000
H508        H  0.06004918  0.97158180  0.70328857     0.17000
H509        H  0.38603056  0.99313118  0.63035507     0.17100
H510        H  0.45399467  0.55289605  0.70815953     0.17000
O511        O  0.04179510  0.60003384  0.93880825    -0.77600
C512        C  0.41381777  0.60146478  0.91878433     0.83400
O513        O  0.00778921  0.98548568  0.99150193    -0.78700
O514        O  0.42494848  0.97510679  0.90322050    -0.80200
O515        O  0.03872765  0.51757964  0.85503405    -0.80000
O516        O  0.08240683  0.56557998  0.90550912    -0.78600
Zn517      Zn  0.99601950  0.56800804  0.94810495     1.55700
O518        O  0.47171103  0.51693257  0.85397398    -0.80000
Cd519      Cd  0.05318718  0.51755603  0.89870581     1.59700
Cd520      Cd  0.00910428  0.97200028  0.94707728     1.59600
O521        O  0.09308222  0.96644487  0.90342116    -0.80000
O522        O  0.00287327  0.52085876  0.92357152    -1.90500
Cd523      Cd  0.45479142  0.52090611  0.89710221     1.59900
O524        O  0.06301078  0.93480171  0.93797230    -0.80000
O525        O  0.41522521  0.57218496  0.90132313    -0.78600
C526        C  0.00539478  0.51939433  0.00527933     0.83900
C527        C  0.07328356  0.59598929  0.92184283     0.83500
O528        O  0.44135460  0.60285123  0.93842191    -0.77600
C529        C  0.00600155  0.01947604  0.83902797     0.84400
O530        O  0.99910087  0.55239527  0.99168191    -0.77700
C531        C  0.09244638  0.93663857  0.91997777     0.84500
C532        C  0.43166219  0.94550909  0.92015781     0.84800
O533        O  0.46202830  0.94083903  0.93778645    -0.80100
C534        C  0.28325500  0.73674311  0.90617795     0.30900
C535        C  0.22128784  0.79972885  0.90550687     0.30900
C536        C  0.29446227  0.77615642  0.91688582    -0.05300
C537        C  0.26459569  0.74819816  0.87544990    -0.06100
C538        C  0.24508591  0.73173692  0.92441909    -0.06000
C539        C  0.26277491  0.80782845  0.91718630    -0.05300
C540        C  0.23215189  0.77976222  0.87529953    -0.06100
C541        C  0.21299457  0.76386531  0.92380212    -0.06000
C542        C  0.28011229  0.84146372  0.92169244    -0.31400
N543        N  0.32145705  0.83117893  0.92307346     0.15100
C544        C  0.33070191  0.79154259  0.91936785    -0.31400
H545        H  0.36150219  0.77560020  0.91619874     0.17100
C546        C  0.21782809  0.78356249  0.84675197    -0.30400
N547        N  0.24222895  0.75738953  0.82921098     0.13900
C548        C  0.27104109  0.73623277  0.84650119    -0.30300
C549        C  0.17686412  0.74787465  0.92576863    -0.30600
N550        N  0.18563542  0.70840008  0.92893129     0.14400
H551        H  0.14635786  0.76321850  0.92091162     0.17000
C552        C  0.22684277  0.69809885  0.92718919    -0.30600
H553        H  0.24215039  0.66801565  0.92413275     0.17000
H554        H  0.29571110  0.71449401  0.83809547     0.17000
H555        H  0.26430345  0.87151046  0.92174121     0.17100
H556        H  0.19200116  0.80401875  0.83930579     0.17000
O557        O  0.06445804  0.93139540  0.10218155    -0.77600
C558        C  0.43499831  0.94019984  0.11640178     0.83400
O559        O  0.49890524  0.55141269  0.05172548    -0.78700
O560        O  0.41563438  0.56598147  0.14145122    -0.80200
O561        O  0.03621349  0.51142037  0.19104796    -0.80000
O562        O  0.09057796  0.95869407  0.14102518    -0.78600
Zn563      Zn  0.51198927  0.96836668  0.09376668     1.55700
O564        O  0.47014689  0.50652525  0.18874355    -0.80000
Cd565      Cd  0.05428150  0.51322418  0.14663142     1.59700
Cd566      Cd  0.49907251  0.56304050  0.09632444     1.59600
O567        O  0.08530777  0.56177858  0.13838808    -0.80000
O568        O  0.50585572  0.51383732  0.11995939    -1.90500
Cd569      Cd  0.45602524  0.51409946  0.14500963     1.59900
O570        O  0.04682035  0.59438584  0.10372355    -0.80000
O571        O  0.42708798  0.96894807  0.13445933    -0.78600
C572        C  0.50590495  0.51883987  0.03758914     0.83900
C573        C  0.09169742  0.93070971  0.12212933     0.83500
O574        O  0.46625218  0.93629432  0.09944539    -0.77600
C575        C  0.50274238  0.50723710  0.20352793     0.84400
O576        O  0.51023250  0.98528575  0.05092800    -0.77700
C577        C  0.07816914  0.59056276  0.12031483     0.84500
C578        C  0.41601520  0.59627540  0.12540134     0.84800
O579        O  0.44525668  0.59876634  0.10733605    -0.80100
C580        C  0.22345614  0.79504599  0.13404881     0.30900
C581        C  0.28720755  0.73352218  0.13360870     0.30900
C582        C  0.26497119  0.80422233  0.12256065    -0.05300
C583        C  0.23453733  0.77585096  0.16416306    -0.06100
C584        C  0.21697041  0.75853199  0.11553387    -0.06000
C585        C  0.29755668  0.77290829  0.12298146    -0.05300
C586        C  0.26809092  0.74551555  0.16412644    -0.06100
C587        C  0.25015674  0.72740097  0.11480514    -0.06000
C588        C  0.33327564  0.78906716  0.12362027    -0.31400
N589        N  0.32341589  0.82862509  0.12149637     0.15100
C590        C  0.28209451  0.83842712  0.12086684    -0.31400
H591        H  0.26590504  0.86841999  0.12032486     0.17100
C592        C  0.27705208  0.73657036  0.19319972    -0.30400
N593        N  0.24823856  0.75821254  0.21046014     0.13900
C594        C  0.22127497  0.78106562  0.19290026    -0.30300
C595        C  0.23396854  0.69291363  0.11075850    -0.30600
N596        N  0.19262889  0.70148885  0.10989009     0.14400
H597        H  0.25073825  0.66331338  0.11259619     0.17000
C598        C  0.18194338  0.74090015  0.11328516    -0.30600
H599        H  0.15092837  0.75502273  0.11819008     0.17000
H600        H  0.19396573  0.79973808  0.20063795     0.17000
H601        H  0.36397834  0.77357754  0.12720276     0.17100
H602        H  0.30272100  0.71615262  0.20143448     0.17000
C603        C  0.46000143  0.53755256  0.40609285     0.30900
C604        C  0.02320458  0.97813311  0.41021333     0.30900
C605        C  0.44961145  0.50026565  0.42145819    -0.05300
C606        C  0.47583606  0.52008183  0.37594409    -0.06100
C607        C  0.99950236  0.54456519  0.42156159    -0.06000
C608        C  0.48184232  0.96921793  0.42220803    -0.05300
C609        C  0.01233113  0.99545567  0.37926689    -0.06100
C610        C  0.03145408  0.51267120  0.42182644    -0.06000
C611        C  0.46442101  0.93488106  0.42147353    -0.31400
N612        N  0.42304409  0.94460237  0.42072360     0.15100
C613        C  0.41358424  0.98431146  0.41969753    -0.31400
H614        H  0.38287440  0.49984651  0.41738959     0.17100
C615        C  0.02525018  0.98820958  0.35040060    -0.30400
N616        N  0.49434584  0.50205335  0.33010003     0.13900
C617        C  0.46624885  0.52589904  0.34659385    -0.30300
C618        C  0.06759382  0.52819196  0.42348622    -0.30600
N619        N  0.05842119  0.56771634  0.42681620     0.14400
H620        H  0.09813696  0.51251264  0.41942822     0.17000
C621        C  0.01724814  0.57814108  0.42527397    -0.30600
H622        H  0.00170495  0.60849363  0.42437096     0.17000
H623        H  0.44055280  0.54536608  0.33768319     0.17000
H624        H  0.48074889  0.90499097  0.41945396     0.17100
H625        H  0.05117412  0.96742408  0.34273598     0.17000
O626        O  0.19979025  0.67690327  0.43620351    -0.77600
C627        C  0.32829493  0.67339549  0.41851293     0.83400
O628        O  0.23401306  0.78714653  0.49107322    -0.78700
O629        O  0.31600741  0.80367452  0.40318182    -0.80200
O630        O  0.20403615  0.75537004  0.35034384    -0.80000
O631        O  0.16041418  0.70968944  0.40201219    -0.78600
Zn632      Zn  0.24540737  0.70782785  0.44506663     1.55700
O633        O  0.27162393  0.75454157  0.35113711    -0.80000
Cd634      Cd  0.18961013  0.75733852  0.39456979     1.59700
Cd635      Cd  0.23214838  0.80293028  0.44685314     1.59600
O636        O  0.14910970  0.80872783  0.40097321    -0.80000
O637        O  0.23880378  0.75504147  0.42087161    -1.90500
Cd638      Cd  0.28786601  0.75435265  0.39516598     1.59900
O639        O  0.17745182  0.83903187  0.43739620    -0.80000
O640        O  0.32919145  0.70333833  0.40203747    -0.78600
C641        C  0.23989471  0.75339025  0.50347183     0.83900
C642        C  0.16900571  0.68024264  0.41897394     0.83500
O643        O  0.29829410  0.67163956  0.43602345    -0.77600
C644        C  0.23816171  0.75472674  0.33697532     0.84400
O645        O  0.24468648  0.72125463  0.48859784    -0.77700
C646        C  0.14908006  0.83800844  0.41842184     0.84500
C647        C  0.30884793  0.83301095  0.42094901     0.84800
O648        O  0.27865037  0.83643967  0.43897512    -0.80100
C649        C  0.08780112  0.61697045  0.39878988    -0.11400
C650        C  0.08753143  0.59432798  0.42424667     0.05600
C651        C  0.11596302  0.59751995  0.44667015    -0.06700
C652        C  0.14300629  0.62504150  0.44416629    -0.07400
C653        C  0.14213766  0.64946549  0.41934344    -0.02000
C654        C  0.11492365  0.64442435  0.39602529     0.04800
N655        N  0.11477655  0.66614833  0.36922693     0.67300
H656        H  0.06693021  0.61317370  0.38110206     0.16200
H657        H  0.16374028  0.62808186  0.46214117     0.15900
N658        N  0.11643783  0.57427344  0.47268904     0.75000
O659        O  0.13238578  0.64941801  0.34674533    -0.38400
O660        O  0.08879418  0.69693130  0.36606200    -0.38300
O661        O  0.14546575  0.54619865  0.47649406    -0.39100
O662        O  0.09435656  0.58752231  0.49437783    -0.39100
C663        C  0.11011097  0.89938259  0.43993287    -0.11400
C664        C  0.11583352  0.87238764  0.41641468     0.05600
C665        C  0.09012839  0.87942261  0.39157214    -0.05500
C666        C  0.06028326  0.91308535  0.39065572    -0.07400
C667        C  0.05669255  0.94202321  0.41301766    -0.02000
C668        C  0.08078532  0.93346280  0.43882635     0.04800
N669        N  0.07508813  0.95746706  0.46486497     0.67300
H670        H  0.12822565  0.89385401  0.45972187     0.16200
H671        H  0.03959737  0.91619279  0.37216569     0.15900
N672        N  0.09487527  0.85391084  0.36634975     0.75000
O673        O  0.54949297  0.95104985  0.48374146    -0.38400
O674        O  0.60466900  0.97583731  0.47282797    -0.38300
O675        O  0.06761003  0.83258962  0.36081764    -0.39100
O676        O  0.11935690  0.86055417  0.34613828    -0.39100
C677        C  0.39897187  0.57638078  0.43235447    -0.11400
C678        C  0.42605887  0.57376318  0.40798259     0.05600
C679        C  0.42312062  0.60718529  0.38910580    -0.06700
C680        C  0.39115760  0.63888813  0.39325211    -0.07400
C681        C  0.36242476  0.63955342  0.41630367    -0.02000
C682        C  0.36705459  0.60776742  0.43625330     0.04800
N683        N  0.34033708  0.60672988  0.46106601     0.67300
H684        H  0.40255892  0.55404982  0.44925794     0.16200
H685        H  0.38920673  0.66352936  0.37820943     0.15900
N686        N  0.45265253  0.61123426  0.36645784     0.75000
O687        O  0.31205795  0.58555407  0.45965311    -0.38400
O688        O  0.35218474  0.61672914  0.48602494    -0.38300
O689        O  0.44010230  0.61567780  0.34030063    -0.39100
O690        O  0.48461222  0.62542095  0.37331246    -0.39100
C691        C  0.36388317  0.91989355  0.44190964    -0.11400
C692        C  0.39362248  0.91781116  0.41974578     0.05600
C693        C  0.39393762  0.88999282  0.39688558    -0.06700
C694        C  0.36606469  0.86273380  0.39756932    -0.07400
C695        C  0.33676451  0.86357720  0.42048930    -0.02000
C696        C  0.33525104  0.89356979  0.44237807     0.04800
N697        N  0.30538518  0.89775909  0.46552642     0.67300
H698        H  0.36325193  0.94198734  0.45916850     0.16200
H699        H  0.36701807  0.84126382  0.37982041     0.15900
N700        N  0.42095653  0.89069197  0.37220696     0.75000
O701        O  0.31510786  0.88233519  0.49012371    -0.38400
O702        O  0.27507540  0.92507612  0.46406725    -0.38300
O703        O  0.45299438  0.86541512  0.37009565    -0.39100
O704        O  0.41589449  0.91968699  0.35485364    -0.39100
C705        C  0.27689199  0.75935503  0.29035808    -0.11400
C706        C  0.23955449  0.75481494  0.30420520     0.05600
C707        C  0.20500722  0.75128364  0.28630171    -0.06700
C708        C  0.20859905  0.75255823  0.25558337    -0.07400
C709        C  0.24597894  0.75693072  0.24203554    -0.02000
C710        C  0.28035333  0.76048464  0.25972482     0.04800
N711        N  0.31848669  0.76748039  0.24715395     0.67300
H712        H  0.30367105  0.76272322  0.30328407     0.16200
H713        H  0.18216967  0.74962590  0.24215718     0.15900
N714        N  0.16618511  0.74574813  0.29857035     0.75000
O715        O  0.32608454  0.80255014  0.24596929    -0.38400
O716        O  0.34799376  0.73931034  0.24569020    -0.38300
O717        O  0.13779364  0.77493537  0.30024231    -0.39100
O718        O  0.15700390  0.71122903  0.29960292    -0.39100
C719        C  0.02966138  0.51849154  0.25340799    -0.11400
C720        C  0.50062636  0.50397909  0.23621129     0.05600
C721        C  0.46814797  0.99387197  0.25446264    -0.06700
C722        C  0.46850646  0.99406887  0.28535599    -0.07400
C723        C  0.49704916  0.50212958  0.29852927    -0.02000
C724        C  0.02755783  0.51807591  0.28421595     0.04800
N725        N  0.05611390  0.53678845  0.30078647     0.67300
H726        H  0.05403093  0.53147425  0.24303670     0.16200
H727        H  0.44535504  0.98118658  0.29734585     0.15900
N728        N  0.43803650  0.97464814  0.23994009     0.75000
O729        O  0.09107105  0.51781222  0.30648515    -0.38400
O730        O  0.05019153  0.57397396  0.30351944    -0.38300
O731        O  0.44353008  0.93734868  0.23845559    -0.39100
O732        O  0.40224039  0.99324677  0.23654484    -0.39100
C733        C  0.13187740  0.67542286  0.09316766    -0.11400
C734        C  0.16454598  0.67359633  0.11271431     0.05600
C735        C  0.16839863  0.64571614  0.13555035    -0.06700
C736        C  0.14025085  0.61877192  0.13769218    -0.07400
C737        C  0.10726119  0.62003145  0.11781651    -0.02000
C738        C  0.10312719  0.64942845  0.09552301     0.04800
N739        N  0.06991286  0.65389971  0.07505546     0.67300
H740        H  0.12869554  0.69739206  0.07594039     0.16200
H741        H  0.14376169  0.59740556  0.15534801     0.15900
N742        N  0.19959639  0.64586938  0.15741115     0.75000
O743        O  0.04068909  0.68197324  0.07873972    -0.38400
O744        O  0.07533398  0.63773464  0.05000309    -0.38300
O745        O  0.20007219  0.67610075  0.17346706    -0.39100
O746        O  0.22996660  0.61852961  0.15759974    -0.39100
C747        C  0.15156245  0.89446080  0.14860920    -0.11400
C748        C  0.12518686  0.89636732  0.12432246     0.05600
C749        C  0.13193927  0.86572952  0.10310493    -0.06700
C750        C  0.16354149  0.83404700  0.10701907    -0.07400
C751        C  0.18890860  0.83073772  0.13214751    -0.02000
C752        C  0.18357542  0.86304226  0.15246167     0.04800
N753        N  0.21181689  0.86723253  0.17569850     0.67300
H754        H  0.14821501  0.91824120  0.16467679     0.16200
H755        H  0.16868484  0.81252308  0.08940550     0.15900
N756        N  0.10831669  0.86662788  0.07674122     0.75000
O757        O  0.24109932  0.88589095  0.17004019    -0.38400
O758        O  0.19849663  0.86869585  0.20184407    -0.38300
O759        O  0.12320229  0.87831206  0.05330343    -0.39100
O760        O  0.07979395  0.84577173  0.07510210    -0.39100
C761        C  0.32258380  0.66741318  0.15183066    -0.11400
C762        C  0.32142723  0.69815099  0.13130429     0.05600
C763        C  0.34798296  0.69167988  0.10645718    -0.06700
C764        C  0.37857169  0.65863635  0.10539311    -0.07400
C765        C  0.38201775  0.62989205  0.12751326    -0.02000
C766        C  0.35264702  0.63400408  0.15052574     0.04800
N767        N  0.35228032  0.60464289  0.17272793     0.67300
H768        H  0.29898591  0.66802849  0.16841454     0.16200
H769        H  0.39893079  0.65493428  0.08645923     0.15900
N770        N  0.34242960  0.71610109  0.08089718     0.75000
O771        O  0.36720325  0.61036264  0.19765869    -0.38400
O772        O  0.32783855  0.57965449  0.17020884    -0.38300
O773        O  0.36941662  0.73737598  0.07451677    -0.39100
O774        O  0.31934972  0.70678329  0.06070735    -0.39100
C775        C  0.38461447  0.90720996  0.14252504    -0.11400
C776        C  0.40742738  0.91020925  0.11668973     0.05600
C777        C  0.40304629  0.88477812  0.09265629    -0.06700
C778        C  0.37551452  0.85752305  0.09489598    -0.07400
C779        C  0.35233079  0.85551279  0.12057048    -0.02000
C780        C  0.35719319  0.88025148  0.14465389     0.04800
N781        N  0.33530035  0.87811631  0.17167481     0.67300
H782        H  0.38830131  0.92562498  0.16150870     0.16200
H783        H  0.37145344  0.83838177  0.07640025     0.15900
N784        N  0.42469944  0.88722477  0.06555502     0.75000
O785        O  0.34870286  0.85157503  0.18983571    -0.38400
O786        O  0.31298804  0.90896188  0.18108910    -0.38300
O787        O  0.45621859  0.86228526  0.06013144    -0.39100
O788        O  0.40680714  0.90682030  0.04465185    -0.39100
C789        C  0.09716243  0.65460685  0.94494709    -0.11400
C790        C  0.10057156  0.62681989  0.92177058     0.05600
C791        C  0.13095409  0.62844100  0.89971924    -0.06700
C792        C  0.15890237  0.65527253  0.90257290    -0.07400
C793        C  0.15620057  0.68174386  0.92635022    -0.02000
C794        C  0.12427953  0.68230341  0.94706802     0.04800
N795        N  0.11969964  0.71017012  0.97085034     0.67300
H796        H  0.07384310  0.65458318  0.96176217     0.16200
H797        H  0.18237075  0.65600759  0.88594955     0.15900
N798        N  0.13298628  0.60443041  0.87370188     0.75000
O799        O  0.09582553  0.74241135  0.96796433    -0.38400
O800        O  0.13123998  0.69891406  0.99626943    -0.38300
O801        O  0.11623709  0.61895926  0.85048129    -0.39100
O802        O  0.15955450  0.57378314  0.87190768    -0.39100
C803        C  0.37265552  0.66339684  0.93813812    -0.11400
C804        C  0.37962723  0.63481335  0.91572373     0.05600
C805        C  0.35297107  0.63834066  0.89115965    -0.06700
C806        C  0.32180280  0.67064600  0.88904078    -0.07400
C807        C  0.31720213  0.70134249  0.90991578    -0.02000
C808        C  0.34113499  0.69563605  0.93599553     0.04800
N809        N  0.33213923  0.72028782  0.96149028     0.67300
H810        H  0.39091436  0.66016265  0.95797551     0.16200
H811        H  0.30006250  0.67018098  0.87152505     0.15900
N812        N  0.35679961  0.60967263  0.86786759     0.75000
O813        O  0.30531473  0.71210159  0.97946055    -0.38400
O814        O  0.35859568  0.74078202  0.97039265    -0.38300
O815        O  0.33121943  0.58563944  0.86634454    -0.39100
O816        O  0.37761070  0.61537597  0.84530516    -0.39100
C817        C  0.16272231  0.83987960  0.93326674    -0.11400
C818        C  0.18815168  0.83630208  0.90799675     0.05600
C819        C  0.18466341  0.86913454  0.88858649    -0.06700
C820        C  0.15371398  0.90152351  0.89336595    -0.07400
C821        C  0.12622963  0.90284755  0.91727040    -0.02000
C822        C  0.13146863  0.87157698  0.93756015     0.04800
N823        N  0.10581700  0.87122673  0.96301644     0.67300
H824        H  0.16695136  0.81821902  0.95049703     0.16200
H825        H  0.15123080  0.92574735  0.87802250     0.15900
N826        N  0.21236654  0.87150919  0.86444810     0.75000
O827        O  0.07525435  0.85289979  0.96179880    -0.38400
O828        O  0.11994994  0.87874175  0.98785448    -0.38300
O829        O  0.19785389  0.87371038  0.83873666    -0.39100
O830        O  0.24460191  0.88642085  0.86909416    -0.39100
C831        C  0.40895967  0.88540541  0.94071041    -0.11400
C832        C  0.40356588  0.91561192  0.91961086     0.05600
C833        C  0.37134100  0.91643465  0.89891715    -0.06700
C834        C  0.34532614  0.88780806  0.90011852    -0.07400
C835        C  0.35023697  0.85854955  0.92171673    -0.02000
C836        C  0.38254941  0.85712758  0.94194655     0.04800
N837        N  0.38759157  0.82864799  0.96496339     0.67300
H838        H  0.43313379  0.88408139  0.95686470     0.16200
H839        H  0.32100468  0.88852276  0.88424932     0.15900
N840        N  0.36389926  0.94616153  0.87679097     0.75000
O841        O  0.41598237  0.79953352  0.96279383    -0.38400
O842        O  0.37243024  0.83834572  0.99000350    -0.38300
O843        O  0.37682192  0.93815705  0.85092658    -0.39100
O844        O  0.33604860  0.97532469  0.88105523    -0.39100
C845        C  0.47165643  0.01699590  0.75922695    -0.11400
C846        C  0.00900904  0.01822240  0.74431712     0.05600
C847        C  0.04589108  0.52295612  0.76364066    -0.06700
C848        C  0.04321110  0.52285532  0.79430215    -0.07400
C849        C  0.00616126  0.01926655  0.80641011    -0.02000
C850        C  0.46967795  0.01802991  0.78985312     0.04800
N851        N  0.43028783  0.01867946  0.80345052     0.67300
H852        H  0.44389733  0.01552550  0.74700892     0.16200
H853        H  0.06936029  0.52901960  0.80682448     0.15900
N854        N  0.08240660  0.53239009  0.75000590     0.75000
O855        O  0.40643815  0.05111690  0.80560437    -0.38400
O856        O  0.41572165  0.98674434  0.80600440    -0.38300
O857        O  0.08781925  0.56812972  0.74882985    -0.39100
O858        O  0.11300397  0.50559238  0.74696145    -0.39100
C859        C  0.20713460  0.75679465  0.75006681    -0.11400
C860        C  0.24493127  0.75057251  0.73483949     0.05600
C861        C  0.28163523  0.74610333  0.75143968    -0.06700
C862        C  0.27971678  0.74898533  0.78216401    -0.07400
C863        C  0.24197803  0.75534221  0.79738526    -0.02000
C864        C  0.20525618  0.75896717  0.78087939     0.04800
N865        N  0.16576440  0.76304776  0.79475159     0.67300
H866        H  0.17844493  0.75990997  0.73801598     0.16200
H867        H  0.30831153  0.74629092  0.79425401     0.15900
N868        N  0.32123923  0.73733187  0.73779918     0.75000
O869        O  0.14368446  0.79658898  0.79502805    -0.38400
O870        O  0.14862786  0.73262691  0.79770997    -0.38300
O871        O  0.34252166  0.76479468  0.73434958    -0.39100
O872        O  0.33877124  0.70188257  0.73680857    -0.39100
C873        C  0.39341475  0.63467512  0.64739357    -0.11400
C874        C  0.36317185  0.63037314  0.62637384     0.05600
C875        C  0.36637401  0.59420890  0.61082583    -0.06700
C876        C  0.39922177  0.56413178  0.61626995    -0.07400
C877        C  0.42841532  0.56705642  0.63858779    -0.02000
C878        C  0.42595210  0.60439077  0.65341787     0.04800
N879        N  0.45672400  0.61422768  0.67323134     0.67300
H880        H  0.39257131  0.66248310  0.65917147     0.16200
H881        H  0.40205797  0.53845156  0.60204394     0.15900
N882        N  0.33682574  0.58706121  0.58926131     0.75000
O883        O  0.44614304  0.62248026  0.69957125    -0.38400
O884        O  0.48569733  0.63025795  0.66274176    -0.38300
O885        O  0.34557084  0.58972291  0.56234442    -0.39100
O886        O  0.30843521  0.56789814  0.59656608    -0.39100
C887        C  0.09549012  0.86975709  0.65221123    -0.11400
C888        C  0.11895441  0.86503933  0.62617042     0.05600
C889        C  0.11107227  0.89402399  0.60420739    -0.06700
C890        C  0.08173740  0.92724276  0.60907863    -0.07400
C891        C  0.06004528  0.93393617  0.63594383    -0.02000
C892        C  0.06585186  0.90321546  0.65720425     0.04800
N893        N  0.04162245  0.90408266  0.68352864     0.67300
H894        H  0.10010678  0.84728752  0.66899627     0.16200
H895        H  0.07564762  0.94754557  0.59096981     0.15900
N896        N  0.13172442  0.89013189  0.57635015     0.75000
O897        O  0.00625062  0.89432365  0.68200499    -0.38400
O898        O  0.05972483  0.90090984  0.70803228    -0.38300
O899        O  0.11305241  0.87924118  0.55424281    -0.39100
O900        O  0.16238835  0.90775148  0.57237652    -0.39100
C901        C  0.37041426  0.85076708  0.64033245    -0.11400
C902        C  0.33951914  0.85610975  0.61888095     0.05600
C903        C  0.33684652  0.88976127  0.60055742    -0.06700
C904        C  0.36529002  0.91627936  0.60378416    -0.07400
C905        C  0.39647623  0.91012183  0.62492297    -0.02000
C906        C  0.39855359  0.87708825  0.64350685     0.04800
N907        N  0.42794726  0.87025702  0.66658033     0.67300
H908        H  0.37282988  0.82597767  0.65530833     0.16200
H909        H  0.36350534  0.94162181  0.58929970     0.15900
N910        N  0.30635721  0.89724011  0.57821504     0.75000
O911        O  0.41917086  0.88650700  0.69129460    -0.38400
O912        O  0.45452690  0.83954600  0.66531320    -0.38300
O913        O  0.27378860  0.92076474  0.58367089    -0.39100
O914        O  0.31673648  0.88977719  0.55177591    -0.39100
C915        C  0.12885524  0.63003525  0.64122644    -0.11400
C916        C  0.13957523  0.64718647  0.61486996     0.05600
C917        C  0.12202925  0.63700290  0.58813798    -0.06700
C918        C  0.09387858  0.61025239  0.58817917    -0.07400
C919        C  0.08358840  0.59296302  0.61435254    -0.02000
C920        C  0.10130064  0.60263591  0.64110546     0.04800
N921        N  0.09152093  0.58500414  0.66819968     0.67300
H922        H  0.14234613  0.63743215  0.66176548     0.16200
H923        H  0.08021614  0.60253060  0.56769173     0.15900
N924        N  0.13128339  0.65454746  0.56095007     0.75000
O925        O  0.11566729  0.55589697  0.67801299    -0.38400
O926        O  0.06535864  0.60404794  0.68536286    -0.38300
O927        O  0.15471306  0.63433622  0.54260700    -0.39100
O928        O  0.10843930  0.68530021  0.55241499    -0.39100
O929        O  0.69017215  0.33603723  0.60891352    -0.77600
C930        C  0.82053845  0.32008721  0.62017950     0.83400
O931        O  0.74896648  0.21899370  0.54969487    -0.78700
O932        O  0.82897335  0.19419576  0.64073189    -0.80200
O933        O  0.70974190  0.24847799  0.69234894    -0.80000
O934        O  0.65703739  0.30420691  0.64182065    -0.78600
Zn935      Zn  0.74024412  0.29758610  0.59651259     1.55700
O936        O  0.77639255  0.25320981  0.69250168    -0.80000
Cd937      Cd  0.69462233  0.25044064  0.64724246     1.59700
Cd938      Cd  0.74972981  0.20317011  0.59377291     1.59600
O939        O  0.66353848  0.20323718  0.63575775    -0.80000
O940        O  0.74370742  0.25033193  0.62095355    -1.90500
Cd941      Cd  0.79177185  0.24732297  0.64780088     1.59900
O942        O  0.70099052  0.17239095  0.59898942    -0.80000
O943        O  0.82514062  0.29182193  0.63852243    -0.78600
C944        C  0.74172590  0.25273646  0.53744733     0.83900
C945        C  0.66020479  0.33500686  0.62670260     0.83500
O946        O  0.79030800  0.32522277  0.60241075    -0.77600
C947        C  0.74273008  0.25203850  0.70629084     0.84400
O948        O  0.73655288  0.28470799  0.55261015    -0.77700
C949        C  0.66999668  0.17580745  0.61620891     0.84500
C950        C  0.83036017  0.16547092  0.62247862     0.84800
O951        O  0.80306871  0.16478559  0.60272122    -0.80100
C952        C  0.52998572  0.47213442  0.64051164     0.30900
C953        C  0.96499894  0.03380765  0.63721511     0.30900
C954        C  0.98791192  0.46066808  0.63265338    -0.05300
C955        C  0.52164600  0.49448899  0.66988584    -0.06100
C956        C  0.53401017  0.00488204  0.61747531    -0.06000
C957        C  0.95466829  0.49092542  0.63384124    -0.05300
C958        C  0.98627734  0.02497587  0.66707356    -0.06100
C959        C  0.50134644  0.03666282  0.61619527    -0.06000
C960        C  0.91968865  0.47320470  0.63208930    -0.31400
N961        N  0.93108887  0.43389279  0.62812565     0.15100
C962        C  0.97267876  0.42574360  0.62798997    -0.31400
H963        H  0.99000802  0.39675471  0.62575238     0.17100
C964        C  0.97908309  0.03659680  0.69572337    -0.30400
N965        N  0.51258612  0.51705001  0.71537584     0.13900
C966        C  0.53789113  0.49222640  0.69771714    -0.30300
C967        C  0.51899036  0.07003406  0.61034041    -0.30600
N968        N  0.56027793  0.06051669  0.60963301     0.14400
H969        H  0.50309787  0.09992567  0.60988032     0.17000
C970        C  0.56976042  0.02143377  0.61441638    -0.30600
H971        H  0.60066937  0.00684342  0.61965629     0.17000
H972        H  0.56485544  0.47256975  0.70507285     0.17000
H973        H  0.88779998  0.48761807  0.63468065     0.17100
H974        H  0.95190128  0.05558096  0.70410459     0.17000
O975        O  0.54500857  0.09652519  0.94180382    -0.77600
C976        C  0.91532881  0.10187281  0.91758634     0.83400
O977        O  0.51002400  0.48627834  0.99166339    -0.78700
O978        O  0.92217405  0.47593254  0.90562939    -0.80200
O979        O  0.53923287  0.02061669  0.85280664    -0.80000
O980        O  0.58471707  0.06408495  0.90712022    -0.78600
Zn981      Zn  0.49666570  0.06686616  0.94784846     1.55700
O982        O  0.97242856  0.01835719  0.85261004    -0.80000
Cd983      Cd  0.55361696  0.01821112  0.89706322     1.59700
Cd984      Cd  0.50757206  0.47260323  0.94778999     1.59600
O985        O  0.59318241  0.46617650  0.90564245    -0.80000
O986        O  0.50392423  0.02044908  0.92259760    -1.90500
Cd987      Cd  0.95594029  0.02152293  0.89586597     1.59900
O988        O  0.55908366  0.43352432  0.93716344    -0.80000
O989        O  0.91569957  0.07255251  0.90027716    -0.78600
C990        C  0.50189704  0.01869221  0.00521938     0.83900
C991        C  0.57723424  0.09240637  0.92557798     0.83500
O992        O  0.94362984  0.10290144  0.93670741    -0.77600
C993        C  0.50585617  0.51692962  0.84086336     0.84400
O994        O  0.49594698  0.05160111  0.99152636    -0.77700
C995        C  0.59004887  0.43542140  0.92066622     0.84500
C996        C  0.92784922  0.44765318  0.92382081     0.84800
O997        O  0.95832204  0.44335938  0.94130064    -0.80100
C998        C  0.78336947  0.23700840  0.91026934     0.30900
C999        C  0.71915364  0.29794408  0.91015317     0.30900
C1000       C  0.79346835  0.27722940  0.92003638    -0.05300
C1001       C  0.76296973  0.24722026  0.87981944    -0.06100
C1002       C  0.74663247  0.23140400  0.93008422    -0.06000
C1003       C  0.76072037  0.30784177  0.92067886    -0.05300
C1004       C  0.72929707  0.27742446  0.88007394    -0.06100
C1005       C  0.71319315  0.26228234  0.92958639    -0.06000
C1006       C  0.77636591  0.34181080  0.92755148    -0.31400
N1007       N  0.81786483  0.33292583  0.92954215     0.15100
C1008       C  0.82875555  0.29365896  0.92444073    -0.31400
H1009       H  0.85990519  0.27900630  0.92154552     0.17100
C1010       C  0.71435723  0.28095144  0.85160784    -0.30400
N1011       N  0.73971019  0.25612776  0.83375964     0.13900
C1012       C  0.76986576  0.23622454  0.85056063    -0.30300
C1013       C  0.67838055  0.24443533  0.93332074    -0.30600
N1014       N  0.68924975  0.20538080  0.93810480     0.14400
H1015       H  0.64721919  0.25783518  0.92814947     0.17000
C1016       C  0.73067329  0.19706564  0.93552201    -0.30600
H1017       H  0.74750331  0.16752512  0.93344368     0.17000
H1018       H  0.79594122  0.21625936  0.84163952     0.17000
H1019       H  0.75931031  0.37139175  0.92881201     0.17100
H1020       H  0.68763483  0.30043040  0.84424412     0.17000
O1021       O  0.56317173  0.43104685  0.10273765    -0.77600
C1022       C  0.93299339  0.44068114  0.11406925     0.83400
O1023       O  0.99617150  0.05074457  0.05192138    -0.78700
O1024       O  0.91471630  0.06636540  0.14126886    -0.80200
O1025       O  0.53418614  0.01374039  0.19265059    -0.80000
O1026       O  0.59376072  0.46118843  0.13810870    -0.78600
Zn1027     Zn  0.01178476  0.46837094  0.09316695     1.55700
O1028       O  0.96767769  0.01003879  0.19114106    -0.80000
Cd1029     Cd  0.55257159  0.01179812  0.14825986     1.59700
Cd1030     Cd  0.99934340  0.06230044  0.09672367     1.59600
O1031       O  0.58581593  0.05772181  0.13908826    -0.80000
O1032       O  0.00506089  0.01356960  0.12094226    -1.90500
Cd1033     Cd  0.95540355  0.01511651  0.14648447     1.59900
O1034       O  0.55014863  0.09023849  0.10275112    -0.80000
O1035       O  0.92585907  0.46851500  0.13294334    -0.78600
C1036       C  0.00254640  0.01813536  0.03772867     0.83900
C1037       C  0.59244118  0.43162080  0.12094764     0.83500
O1038       O  0.96427844  0.43719491  0.09709876    -0.77600
C1039       C  0.00042009  0.01151585  0.20566957     0.84400
O1040       O  0.01304273  0.48568181  0.05069781    -0.77700
C1041       C  0.58096721  0.08521210  0.11993328     0.84500
C1042       C  0.91646173  0.09706649  0.12593377     0.84800
O1043       O  0.94675341  0.09979910  0.10880294    -0.80100
C1044       C  0.72296066  0.29482589  0.13231202     0.30900
C1045       C  0.78716532  0.23385176  0.13209280     0.30900
C1046       C  0.76307749  0.30306239  0.11749969    -0.05300
C1047       C  0.73725863  0.27891255  0.16279314    -0.06100
C1048       C  0.71504098  0.25639352  0.11672958    -0.06000
C1049       C  0.79612883  0.27202271  0.11821651    -0.05300
C1050       C  0.77103741  0.24892148  0.16288109    -0.06100
C1051       C  0.74845580  0.22565139  0.11610950    -0.06000
C1052       C  0.83152684  0.28893274  0.11841036    -0.31400
N1053       N  0.82127028  0.32829454  0.11539045     0.15100
C1054       C  0.77990547  0.33741511  0.11467278    -0.31400
H1055       H  0.76340492  0.36712420  0.11371043     0.17100
C1056       C  0.78112627  0.24156648  0.19211234    -0.30400
N1057       N  0.75272309  0.26392851  0.20940030     0.13900
C1058       C  0.72502238  0.28553218  0.19162469    -0.30300
C1059       C  0.73292877  0.19061854  0.11325257    -0.30600
N1060       N  0.69161326  0.19865711  0.11239315     0.14400
H1061       H  0.75005140  0.16119418  0.11548984     0.17000
C1062       C  0.68023398  0.23804284  0.11587685    -0.30600
H1063       H  0.64904783  0.25176983  0.12072545     0.17000
H1064       H  0.69727016  0.30388075  0.19923011     0.17000
H1065       H  0.86228655  0.27407656  0.12282796     0.17100
H1066       H  0.80669163  0.22119622  0.20038665     0.17000
C1067       C  0.95988890  0.03987756  0.40848493     0.30900
C1068       C  0.52199793  0.47454193  0.40833833     0.30900
C1069       C  0.94927221  0.00101857  0.42089349    -0.05300
C1070       C  0.97876832  0.02577823  0.37846332    -0.06100
C1071       C  0.49714073  0.04663796  0.42678457    -0.06000
C1072       C  0.98187114  0.46817932  0.42326729    -0.05300
C1073       C  0.50851245  0.48876289  0.37707912    -0.06100
C1074       C  0.53017523  0.01537279  0.42704448    -0.06000
C1075       C  0.96411888  0.43436012  0.42584421    -0.31400
N1076       N  0.92291137  0.44466188  0.42638715     0.15100
C1077       C  0.91375831  0.48403305  0.42278655    -0.31400
H1078       H  0.88297367  0.00063425  0.41507161     0.17100
C1079       C  0.52035355  0.47936462  0.34834991    -0.30400
N1080       N  0.99857531  0.01087944  0.33250385     0.13900
C1081       C  0.96906946  0.03214272  0.34930649    -0.30300
C1082       C  0.56542004  0.03263650  0.42857589    -0.30600
N1083       N  0.55512364  0.07211035  0.43164936     0.14400
H1084       H  0.59634145  0.01799200  0.42363363     0.17000
C1085       C  0.51377681  0.08098010  0.43026520    -0.30600
H1086       H  0.49727957  0.11071901  0.42862187     0.17000
H1087       H  0.94142568  0.04929515  0.34068045     0.17000
H1088       H  0.97974106  0.40425046  0.42410162     0.17100
H1089       H  0.54611222  0.45789342  0.34102405     0.17000
O1090       O  0.69642041  0.18151689  0.43721235    -0.77600
C1091       C  0.82637585  0.17378511  0.41965526     0.83400
O1092       O  0.73373665  0.28839694  0.49247895    -0.78700
O1093       O  0.81857116  0.30333471  0.40584566    -0.80200
O1094       O  0.70748247  0.25829601  0.34940424    -0.80000
O1095       O  0.66048869  0.21213690  0.40054748    -0.78600
Zn1096     Zn  0.74413671  0.20968197  0.44597205     1.55700
O1097       O  0.77481983  0.25836734  0.35105750    -0.80000
Cd1098     Cd  0.69201721  0.25838731  0.39361045     1.59700
Cd1099     Cd  0.73259254  0.30354682  0.44802345     1.59600
O1100       O  0.65169573  0.30881184  0.40064465    -0.80000
O1101       O  0.73963330  0.25629314  0.42132462    -1.90500
Cd1102     Cd  0.78900784  0.25567561  0.39587659     1.59900
O1103       O  0.67770204  0.33906358  0.43816786    -0.80000
O1104       O  0.82813704  0.20374914  0.40332996    -0.78600
C1105       C  0.73966688  0.25472183  0.50493010     0.83900
C1106       C  0.66641272  0.18448900  0.41927752     0.83500
O1107       O  0.79597258  0.17216171  0.43682842    -0.77600
C1108       C  0.74169081  0.25893633  0.33638048     0.84400
O1109       O  0.74421200  0.22267705  0.48990413    -0.77700
C1110       C  0.64999826  0.33748653  0.41873169     0.84500
C1111       C  0.81126867  0.33200160  0.42415189     0.84800
O1112       O  0.78019171  0.33595750  0.44141001    -0.80100
C1113       C  0.57696469  0.12791405  0.40586986    -0.11400
C1114       C  0.58318571  0.09993336  0.42835719     0.05600
C1115       C  0.61755158  0.09870721  0.44666210    -0.06700
C1116       C  0.64458937  0.12594678  0.44274027    -0.07400
C1117       C  0.63780694  0.15511963  0.42089609    -0.02000
C1118       C  0.60346923  0.15576575  0.40209305     0.04800
N1119       N  0.59452257  0.18430236  0.37923603     0.67300
H1120       H  0.55190485  0.12780022  0.39097898     0.16200
H1121       H  0.67047779  0.12466434  0.45751612     0.15900
N1122       N  0.62446424  0.07115696  0.47022647     0.75000
O1123       O  0.60777831  0.17566609  0.35353161    -0.38400
O1124       O  0.56510506  0.21223027  0.38277309    -0.38300
O1125       O  0.65523151  0.04426417  0.46905283    -0.39100
O1126       O  0.60715831  0.07998987  0.49472906    -0.39100
C1127       C  0.61073217  0.39935746  0.43893135    -0.11400
C1128       C  0.61542736  0.37046088  0.41670658     0.05600
C1129       C  0.58720580  0.37416674  0.39310376    -0.05500
C1130       C  0.55740424  0.40768711  0.39116770    -0.07400
C1131       C  0.55510492  0.43854795  0.41192063    -0.02000
C1132       C  0.58019417  0.43232754  0.43740577     0.04800
N1133       N  0.57394165  0.45746813  0.46284833     0.67300
H1134       H  0.63018647  0.39599122  0.45811383     0.16200
H1135       H  0.53538008  0.40887223  0.37359598     0.15900
N1136       N  0.58802421  0.34442385  0.37075966     0.75000
O1137       O  0.04445890  0.45353003  0.48011407    -0.38400
O1138       O  0.10285364  0.47413499  0.47190695    -0.38300
O1139       O  0.56399058  0.31901657  0.37285585    -0.39100
O1140       O  0.60451992  0.34949017  0.34621932    -0.39100
C1141       C  0.89724160  0.07692584  0.43386927    -0.11400
C1142       C  0.92499774  0.07518764  0.40994608     0.05600
C1143       C  0.92170443  0.10873228  0.39112415    -0.06700
C1144       C  0.88907638  0.13960902  0.39482315    -0.07400
C1145       C  0.86029025  0.13991200  0.41767123    -0.02000
C1146       C  0.86512162  0.10825590  0.43773666     0.04800
N1147       N  0.83923742  0.10802021  0.46307486     0.67300
H1148       H  0.90084177  0.05413573  0.45044036     0.16200
H1149       H  0.88710867  0.16429254  0.37982526     0.15900
N1150       N  0.95222420  0.11470485  0.36972664     0.75000
O1151       O  0.81238346  0.08521681  0.46342023    -0.38400
O1152       O  0.85063906  0.12142321  0.48712830    -0.38300
O1153       O  0.94136499  0.11868638  0.34316212    -0.39100
O1154       O  0.98129651  0.13219914  0.37803438    -0.39100
C1155       C  0.87426970  0.40931520  0.45133357    -0.11400
C1156       C  0.89392016  0.41773093  0.42542454     0.05600
C1157       C  0.88603878  0.39903527  0.39895753    -0.06700
C1158       C  0.85914541  0.37094711  0.39884363    -0.07400
C1159       C  0.83952969  0.36179316  0.42498923    -0.02000
C1160       C  0.84719621  0.38153668  0.45138223     0.04800
N1161       N  0.83049551  0.37145664  0.47884000     0.67300
H1162       H  0.88093303  0.42365845  0.47170783     0.16200
H1163       H  0.85320947  0.35663401  0.37826051     0.15900
N1164       N  0.90492873  0.40895105  0.37217358     0.75000
O1165       O  0.85001648  0.34368383  0.49353583    -0.38400
O1166       O  0.80315411  0.39582726  0.49138607    -0.38300
O1167       O  0.93953054  0.39028675  0.36474246    -0.39100
O1168       O  0.89161589  0.44111346  0.35961193    -0.39100
C1169       C  0.78127294  0.26337561  0.28969038    -0.11400
C1170       C  0.74340266  0.26046791  0.30347897     0.05600
C1171       C  0.70843739  0.25965998  0.28536810    -0.06700
C1172       C  0.71234633  0.26065225  0.25464119    -0.07400
C1173       C  0.75026272  0.26303107  0.24109634    -0.02000
C1174       C  0.78485107  0.26508231  0.25896805     0.04800
N1175       N  0.82316036  0.27178599  0.24652344     0.67300
H1176       H  0.80831338  0.26518662  0.30276275     0.16200
H1177       H  0.68553688  0.25932673  0.24121827     0.15900
N1178       N  0.66851193  0.25814959  0.29746533     0.75000
O1179       O  0.82958799  0.30694456  0.24300410    -0.38400
O1180       O  0.85341612  0.24433340  0.24693956    -0.38300
O1181       O  0.64294492  0.28956273  0.29885348    -0.39100
O1182       O  0.65556111  0.22525868  0.29873594    -0.39100
C1183       C  0.52853735  0.02701137  0.25442350    -0.11400
C1184       C  0.99897499  0.01101787  0.23852168     0.05600
C1185       C  0.96742941  0.48823980  0.25066095    -0.06700
C1186       C  0.96600186  0.48720995  0.28155393    -0.07400
C1187       C  0.99935185  0.01074703  0.30091562    -0.02000
C1188       C  0.52886191  0.02684653  0.28528769     0.04800
N1189       N  0.55908077  0.04507595  0.30050298     0.67300
H1190       H  0.55169191  0.04049469  0.24291357     0.16200
H1191       H  0.94144868  0.47517029  0.29242390     0.15900
N1192       N  0.93586759  0.47294990  0.23458436     0.75000
O1193       O  0.59447712  0.02580129  0.30423358    -0.38400
O1194       O  0.55368676  0.08218855  0.30376483    -0.38300
O1195       O  0.93577074  0.43605970  0.23356380    -0.39100
O1196       O  0.90367765  0.49595251  0.22772714    -0.39100
C1197       C  0.64889896  0.15553066  0.08868049    -0.11400
C1198       C  0.66480725  0.16963025  0.11438178     0.05600
C1199       C  0.65526467  0.15462565  0.14182055    -0.06700
C1200       C  0.62887988  0.12606951  0.14335360    -0.07400
C1201       C  0.61151971  0.11268360  0.11761051    -0.02000
C1202       C  0.62237048  0.12724361  0.08998676     0.04800
N1203       N  0.60785131  0.11280088  0.06298560     0.67300
H1204       H  0.65713998  0.16667076  0.06754990     0.16200
H1205       H  0.62099755  0.11522910  0.16469852     0.15900
N1206       N  0.67173459  0.16898822  0.16814936     0.75000
O1207       O  0.57653931  0.13189704  0.05098908    -0.38400
O1208       O  0.63189664  0.08838742  0.04771010    -0.38300
O1209       O  0.65464450  0.20115990  0.17942149    -0.39100
O1210       O  0.70764437  0.15477738  0.17601502    -0.39100
C1211       C  0.65558101  0.39716815  0.14474016    -0.11400
C1212       C  0.62537743  0.39680473  0.12312085     0.05600
C1213       C  0.62740343  0.36316020  0.10467795    -0.06700
C1214       C  0.65902774  0.33138278  0.10817055    -0.07400
C1215       C  0.68839279  0.33051653  0.13079990    -0.02000
C1216       C  0.68686296  0.36514180  0.14874641     0.04800
N1217       N  0.71737171  0.37031184  0.17021971     0.67300
H1218       H  0.65539156  0.42284368  0.15880696     0.16200
H1219       H  0.66069035  0.30773951  0.09221924     0.15900
N1220       N  0.59783854  0.36032492  0.08209968     0.75000
O1221       O  0.74508753  0.39009146  0.16277975    -0.38400
O1222       O  0.70677334  0.37170122  0.19698613    -0.38300
O1223       O  0.60787659  0.36454934  0.05559702    -0.39100
O1224       O  0.56704929  0.34353788  0.08775635    -0.39100
C1225       C  0.82374219  0.16933717  0.15180413    -0.11400
C1226       C  0.82130030  0.19842123  0.12993046     0.05600
C1227       C  0.84689480  0.19037262  0.10463609    -0.06700
C1228       C  0.87745746  0.15727516  0.10407866    -0.07400
C1229       C  0.88243370  0.13059364  0.12753560    -0.02000
C1230       C  0.85449695  0.13649854  0.15139783     0.04800
N1231       N  0.85758566  0.11062200  0.17611269     0.67300
H1232       H  0.80120203  0.17127401  0.16922809     0.16200
H1233       H  0.89693251  0.15209228  0.08475513     0.15900
N1234       N  0.84133067  0.21385912  0.07859516     0.75000
O1235       O  0.87469164  0.12073952  0.19918153    -0.38400
O1236       O  0.83366905  0.08507438  0.17786214    -0.38300
O1237       O  0.86946546  0.23309136  0.07082687    -0.39100
O1238       O  0.81628841  0.20542374  0.05943215    -0.39100
C1239       C  0.88574404  0.40308064  0.13996623    -0.11400
C1240       C  0.90469972  0.41111742  0.11336382     0.05600
C1241       C  0.89622798  0.39065524  0.08752142    -0.06700
C1242       C  0.86853823  0.36338913  0.08871022    -0.07400
C1243       C  0.84965946  0.35586485  0.11525909    -0.02000
C1244       C  0.85876426  0.37535661  0.14119650     0.04800
N1245       N  0.84228674  0.36636201  0.16910570     0.67300
H1246       H  0.89270284  0.41765001  0.16014812     0.16200
H1247       H  0.86142097  0.34816990  0.06887378     0.15900
N1248       N  0.91404593  0.39809620  0.05977396     0.75000
O1249       O  0.85938165  0.33633311  0.18272788    -0.38400
O1250       O  0.82072447  0.39367000  0.18351439    -0.38300
O1251       O  0.94221961  0.37270805  0.04919195    -0.39100
O1252       O  0.89453933  0.42331730  0.04287712    -0.39100
C1253       C  0.59832652  0.15223054  0.94912035    -0.11400
C1254       C  0.60677323  0.12109101  0.92855126     0.05600
C1255       C  0.64347312  0.11805897  0.91162921    -0.06700
C1256       C  0.67013499  0.14580857  0.91541675    -0.07400
C1257       C  0.66157744  0.17674443  0.93589550    -0.02000
C1258       C  0.62522420  0.17992624  0.95288745     0.04800
N1259       N  0.61562979  0.21030529  0.97465889     0.67300
H1260       H  0.57071397  0.15521421  0.96255106     0.16200
H1261       H  0.69753063  0.14346925  0.90186067     0.15900
N1262       N  0.65460611  0.08709244  0.89051099     0.75000
O1263       O  0.59083061  0.24088210  0.96829573    -0.38400
O1264       O  0.62177010  0.20168344  0.00140288    -0.38300
O1265       O  0.65003618  0.09465298  0.86347051    -0.39100
O1266       O  0.67816608  0.05630860  0.89817533    -0.39100
C1267       C  0.87763394  0.16504845  0.93723852    -0.11400
C1268       C  0.88127254  0.13554980  0.91544470     0.05600
C1269       C  0.85123738  0.13835954  0.89299281    -0.06700
C1270       C  0.82029213  0.17100961  0.89209930    -0.07400
C1271       C  0.81837657  0.20222783  0.91248662    -0.02000
C1272       C  0.84570884  0.19704483  0.93681571     0.04800
N1273       N  0.83953900  0.22124032  0.96273736     0.67300
H1274       H  0.89846779  0.16236221  0.95570672     0.16200
H1275       H  0.79624601  0.17033906  0.87607011     0.15900
N1276       N  0.85042360  0.10803150  0.87129050     0.75000
O1277       O  0.81329072  0.21377500  0.98142167    -0.38400
O1278       O  0.86826275  0.23918521  0.97128706    -0.38300
O1279       O  0.82705218  0.08241239  0.87535804    -0.39100
O1280       O  0.86234305  0.11389312  0.84546702    -0.39100
C1281       C  0.65714988  0.33722839  0.93528704    -0.11400
C1282       C  0.68524921  0.33399734  0.91156717     0.05600
C1283       C  0.68314577  0.36662933  0.89199848    -0.06700
C1284       C  0.65201680  0.39913716  0.89555434    -0.07400
C1285       C  0.62285151  0.40074458  0.91835632    -0.02000
C1286       C  0.62570384  0.36908843  0.93830987     0.04800
N1287       N  0.59760174  0.36879248  0.96238416     0.67300
H1288       H  0.65979110  0.31572291  0.95258974     0.16200
H1289       H  0.65091961  0.42335738  0.88029218     0.15900
N1290       N  0.71283941  0.36881756  0.86911964     0.75000
O1291       O  0.56887060  0.34822691  0.96033694    -0.38400
O1292       O  0.60754329  0.38019046  0.98745981    -0.38300
O1293       O  0.70099699  0.36879313  0.84273761    -0.39100
O1294       O  0.74340706  0.38577617  0.87483046    -0.39100
C1295       C  0.90528482  0.38829906  0.94582225    -0.11400
C1296       C  0.89879679  0.41861338  0.92482448     0.05600
C1297       C  0.86517690  0.41980206  0.90533784    -0.06700
C1298       C  0.83910088  0.39135660  0.90749369    -0.07400
C1299       C  0.84546377  0.36153010  0.92862628    -0.02000
C1300       C  0.87915153  0.35981010  0.94775634     0.04800
N1301       N  0.88703996  0.32992098  0.96963497     0.67300
H1302       H  0.93075880  0.38649895  0.96098584     0.16200
H1303       H  0.81413398  0.39217171  0.89221661     0.15900
N1304       N  0.85685067  0.44922624  0.88307077     0.75000
O1305       O  0.91558589  0.30147193  0.96508869    -0.38400
O1306       O  0.87556929  0.33828976  0.99577034    -0.38300
O1307       O  0.86914417  0.44094367  0.85709534    -0.39100
O1308       O  0.82856828  0.47798896  0.88739616    -0.39100
C1309       C  0.97606658  0.50822071  0.76095519    -0.11400
C1310       C  0.51213527  0.51614325  0.74673217     0.05600
C1311       C  0.54495704  0.01931069  0.76056659    -0.06700
C1312       C  0.54330335  0.01964733  0.79132846    -0.07400
C1313       C  0.50724460  0.51617042  0.80844079    -0.02000
C1314       C  0.97302440  0.50842547  0.79146425     0.04800
N1315       N  0.93522925  0.50095376  0.80437530     0.67300
H1316       H  0.95012724  0.50227183  0.74805483     0.16200
H1317       H  0.57135549  0.02101176  0.80333818     0.15900
N1318       N  0.58295104  0.02315030  0.74630510     0.75000
O1319       O  0.90610368  0.52924760  0.80751305    -0.38400
O1320       O  0.92749102  0.46590838  0.80507086    -0.38300
O1321       O  0.59365879  0.05700999  0.74455871    -0.39100
O1322       O  0.60986838  0.99296034  0.74322110    -0.39100
C1323       C  0.71298757  0.23590793  0.75494556    -0.11400
C1324       C  0.74183175  0.25442039  0.73929029     0.05600
C1325       C  0.76917599  0.27449945  0.75566125    -0.06700
C1326       C  0.76761060  0.27500114  0.78661137    -0.07400
C1327       C  0.73924526  0.25599321  0.80199596    -0.02000
C1328       C  0.71167234  0.23641251  0.78593082     0.04800
N1329       N  0.68310552  0.21565275  0.80072870     0.67300
H1330       H  0.69192050  0.22020137  0.74314422     0.16200
H1331       H  0.78860695  0.29040864  0.79879465     0.15900
N1332       N  0.79794704  0.29566265  0.74141674     0.75000
O1333       O  0.64605996  0.23157179  0.80316511    -0.38400
O1334       O  0.69218647  0.17882760  0.80438919    -0.38300
O1335       O  0.78849744  0.33246054  0.73776482    -0.39100
O1336       O  0.83532376  0.28042625  0.74017614    -0.39100
C1337       C  0.89552786  0.13570200  0.64577373    -0.11400
C1338       C  0.86487300  0.13228028  0.62498155     0.05600
C1339       C  0.86902196  0.09805630  0.60702773    -0.06700
C1340       C  0.90186467  0.06774577  0.61146887    -0.07400
C1341       C  0.93058535  0.06926259  0.63426283    -0.02000
C1342       C  0.92874080  0.10573857  0.65001924     0.04800
N1343       N  0.96158897  0.11578932  0.66778509     0.67300
H1344       H  0.89479432  0.16283035  0.65845337     0.16200
H1345       H  0.90490563  0.04272743  0.59642342     0.15900
N1346       N  0.84071542  0.09335873  0.58394776     0.75000
O1347       O  0.95428343  0.12335163  0.69469749    -0.38400
O1348       O  0.98785585  0.13357185  0.65538908    -0.38300
O1349       O  0.85200349  0.09619459  0.55755140    -0.39100
O1350       O  0.81006230  0.07630330  0.58942628    -0.39100
C1351       C  0.60042404  0.37203727  0.65410716    -0.11400
C1352       C  0.62826686  0.37047466  0.63042879     0.05600
C1353       C  0.62426025  0.40252704  0.61076210    -0.06700
C1354       C  0.59234119  0.43392044  0.61445348    -0.07400
C1355       C  0.56502664  0.43674492  0.63868424    -0.02000
C1356       C  0.56907559  0.40424718  0.65845748     0.04800
N1357       N  0.54041638  0.40134389  0.68186122     0.67300
H1358       H  0.60248596  0.34762337  0.66944189     0.16200
H1359       H  0.58866283  0.45555756  0.59702457     0.15900
N1360       N  0.65170200  0.40383250  0.58642037     0.75000
O1361       O  0.51241450  0.38057269  0.67740465    -0.38400
O1362       O  0.55239461  0.40449532  0.70799635    -0.38300
O1363       O  0.64087030  0.39372599  0.56121716    -0.39100
O1364       O  0.67979750  0.42514685  0.58847004    -0.39100
C1365       C  0.86622868  0.35728517  0.64860543    -0.11400
C1366       C  0.85008285  0.34867221  0.62112577     0.05600
C1367       C  0.86149392  0.36846205  0.59592905    -0.06700
C1368       C  0.88844475  0.39637180  0.59856313    -0.07400
C1369       C  0.90380080  0.40520484  0.62606487    -0.02000
C1370       C  0.89250282  0.38566829  0.65122988     0.04800
N1371       N  0.90596183  0.39553843  0.67980180     0.67300
H1372       H  0.85743383  0.34306087  0.66813733     0.16200
H1373       H  0.89757299  0.41113956  0.57917239     0.15900
N1374       N  0.84784031  0.35913412  0.56736120     0.75000
O1375       O  0.88406523  0.42230740  0.69450070    -0.38400
O1376       O  0.93195918  0.37105212  0.69303776    -0.38300
O1377       O  0.81981267  0.38263538  0.55515489    -0.39100
O1378       O  0.87022786  0.33352510  0.55198011    -0.39100
C1379       C  0.62403056  0.13354201  0.63974285    -0.11400
C1380       C  0.64134847  0.14631331  0.61385443     0.05600
C1381       C  0.63244985  0.12914579  0.58656997    -0.06700
C1382       C  0.60538741  0.10116945  0.58561238    -0.07400
C1383       C  0.58848962  0.08851080  0.61146582    -0.02000
C1384       C  0.59874305  0.10400376  0.63879714     0.04800
N1385       N  0.58609450  0.08814739  0.66580716     0.67300
H1386       H  0.63164683  0.14512179  0.66080070     0.16200
H1387       H  0.59789075  0.08886835  0.56472428     0.15900
N1388       N  0.65027318  0.13976409  0.55956549     0.75000
O1389       O  0.60828081  0.05845746  0.67661180    -0.38400
O1390       O  0.56071580  0.10936709  0.68230107    -0.38300
O1391       O  0.68219355  0.11838301  0.54983630    -0.39100
O1392       O  0.62862626  0.16267260  0.54216029    -0.39100
O1393       O  0.68110130  0.83184791  0.60430679    -0.77600
C1394       C  0.81142681  0.82598178  0.61726669     0.83400
O1395       O  0.74939633  0.71758365  0.54811135    -0.78700
O1396       O  0.83027882  0.69546316  0.63694746    -0.80200
O1397       O  0.71152630  0.74705354  0.68883630    -0.80000
O1398       O  0.65279909  0.80129382  0.64035996    -0.78600
Zn1399     Zn  0.73446740  0.79751017  0.59397689     1.55700
O1400       O  0.77825097  0.75095111  0.68754778    -0.80000
Cd1401     Cd  0.69401273  0.74978867  0.64507381     1.59700
Cd1402     Cd  0.74874349  0.70142482  0.59211327     1.59600
O1403       O  0.66436505  0.70233090  0.63573024    -0.80000
O1404       O  0.74182641  0.74975127  0.61796724    -1.90500
Cd1405     Cd  0.79129458  0.74782922  0.64288593     1.59900
O1406       O  0.69877949  0.67210431  0.59734330    -0.80000
O1407       O  0.82004218  0.79514423  0.63299736    -0.78600
C1408       C  0.74154645  0.75130555  0.53577368     0.83900
C1409       C  0.65253758  0.83064674  0.62315895     0.83500
O1410       O  0.77948085  0.83116959  0.60116033    -0.77600
C1411       C  0.74534671  0.74906623  0.70197859     0.84400
O1412       O  0.73456666  0.78340743  0.55065356    -0.77700
C1413       C  0.66926523  0.67550144  0.61588910     0.84500
C1414       C  0.82980872  0.66416370  0.62163106     0.84800
O1415       O  0.80117150  0.66155022  0.60313571    -0.80100
C1416       C  0.52741581  0.97072569  0.63809622     0.30900
C1417       C  0.96460121  0.53247041  0.64123139     0.30900
C1418       C  0.98461958  0.96144985  0.62976618    -0.05300
C1419       C  0.51931419  0.99364412  0.66731548    -0.06100
C1420       C  0.53391027  0.50702739  0.62005015    -0.06000
C1421       C  0.95292447  0.99309695  0.62976593    -0.05300
C1422       C  0.98756443  0.52423084  0.67049532    -0.06100
C1423       C  0.49968078  0.53756129  0.61942889    -0.06000
C1424       C  0.91659635  0.97733155  0.62862786    -0.31400
N1425       N  0.92571352  0.93734212  0.62693083     0.15100
C1426       C  0.96715497  0.92733739  0.62745661    -0.31400
H1427       H  0.98335598  0.89723259  0.62721724     0.17100
C1428       C  0.98121709  0.53546029  0.69926349    -0.30400
N1429       N  0.50901890  0.01667004  0.71279725     0.13900
C1430       C  0.53435245  0.99103056  0.69555618    -0.30300
C1431       C  0.51521534  0.57222809  0.61390687    -0.30600
N1432       N  0.55658919  0.56447020  0.61317191     0.14400
H1433       H  0.49815924  0.60129884  0.61402258     0.17000
C1434       C  0.56820453  0.52570966  0.61745005    -0.30600
H1435       H  0.59964835  0.51285749  0.62272807     0.17000
H1436       H  0.56015200  0.97128594  0.70322925     0.17000
H1437       H  0.88582331  0.99340089  0.63044862     0.17100
H1438       H  0.95408253  0.55279694  0.70828706     0.17000
O1439       O  0.54149211  0.60019783  0.93900728    -0.77600
C1440       C  0.91404698  0.60174179  0.91897208     0.83400
O1441       O  0.50786555  0.98568126  0.99151877    -0.78700
O1442       O  0.92473180  0.97543930  0.90315226    -0.80200
O1443       O  0.53902332  0.51791670  0.85494134    -0.80000
O1444       O  0.58230334  0.56586577  0.90574334    -0.78600
Zn1445     Zn  0.49577583  0.56796476  0.94807681     1.55700
O1446       O  0.97137448  0.51683508  0.85412547    -0.80000
Cd1447     Cd  0.55324728  0.51773445  0.89870917     1.59700
Cd1448     Cd  0.50927317  0.97205307  0.94711686     1.59600
O1449       O  0.59303765  0.96641195  0.90323132    -0.80000
O1450       O  0.50283420  0.52086740  0.92348107    -1.90500
Cd1451     Cd  0.95471402  0.52107509  0.89729965     1.59900
O1452       O  0.56323753  0.93496587  0.93803714    -0.80000
O1453       O  0.91539991  0.57246537  0.90152080    -0.78600
C1454       C  0.50504827  0.51931773  0.00525653     0.83900
C1455       C  0.57305257  0.59623372  0.92211321     0.83500
O1456       O  0.94161151  0.60308720  0.93859557    -0.77600
C1457       C  0.50579149  0.01931772  0.83902349     0.84400
O1458       O  0.49866629  0.55231466  0.99165810    -0.77700
C1459       C  0.59251630  0.93669056  0.91988897     0.84500
C1460       C  0.93127342  0.94587775  0.92013142     0.84800
O1461       O  0.96164327  0.94108015  0.93775551    -0.80100
C1462       C  0.78327663  0.73679965  0.90624892     0.30900
C1463       C  0.72113677  0.79962636  0.90530465     0.30900
C1464       C  0.79430249  0.77630791  0.91690720    -0.05300
C1465       C  0.76478590  0.74809385  0.87545675    -0.06100
C1466       C  0.74504266  0.73176746  0.92442188    -0.06000
C1467       C  0.76251989  0.80790142  0.91705503    -0.05300
C1468       C  0.73222570  0.77954303  0.87515844    -0.06100
C1469       C  0.71290331  0.76382244  0.92368989    -0.06000
C1470       C  0.77971422  0.84165014  0.92138739    -0.31400
N1471       N  0.82107270  0.83151119  0.92282741     0.15100
C1472       C  0.83045655  0.79185308  0.91931242    -0.31400
H1473       H  0.86130885  0.77596982  0.91621207     0.17100
C1474       C  0.71813528  0.78318792  0.84654273    -0.30400
N1475       N  0.74280731  0.75705530  0.82913336     0.13900
C1476       C  0.77158460  0.73610580  0.84654198    -0.30300
C1477       C  0.67680741  0.74782336  0.92590103    -0.30600
N1478       N  0.68565804  0.70839168  0.92931011     0.14400
H1479       H  0.64625756  0.76307861  0.92109533     0.17000
C1480       C  0.72686716  0.69811604  0.92743362    -0.30600
H1481       H  0.74219250  0.66801084  0.92447166     0.17000
H1482       H  0.79646146  0.71446569  0.83824314     0.17000
H1483       H  0.76380204  0.87163443  0.92128495     0.17100
H1484       H  0.69229629  0.80347712  0.83895439     0.17000
O1485       O  0.56475881  0.93163664  0.10204280    -0.77600
C1486       C  0.93473472  0.94023623  0.11666119     0.83400
O1487       O  0.99937118  0.55148139  0.05175429    -0.78700
O1488       O  0.91556889  0.56593640  0.14105449    -0.80200
O1489       O  0.53673223  0.51149017  0.19095003    -0.80000
O1490       O  0.59062407  0.95873972  0.14107616    -0.78600
Zn1491     Zn  0.01176637  0.96824574  0.09383395     1.55700
O1492       O  0.96961735  0.50658123  0.18856679    -0.80000
Cd1493     Cd  0.55440272  0.51334729  0.14644866     1.59700
Cd1494     Cd  0.99932794  0.56305829  0.09636841     1.59600
O1495       O  0.58520714  0.56197914  0.13802609    -0.80000
O1496       O  0.00591417  0.51380815  0.11994731    -1.90500
Cd1497     Cd  0.95589539  0.51407498  0.14477645     1.59900
O1498       O  0.54650613  0.59454864  0.10345027    -0.80000
O1499       O  0.92700875  0.96886964  0.13483646    -0.78600
C1500       C  0.00628810  0.51891179  0.03760645     0.83900
C1501       C  0.59189076  0.93087005  0.12207065     0.83500
O1502       O  0.96584459  0.93639529  0.09956533    -0.77600
C1503       C  0.00210013  0.50725621  0.20348368     0.84400
O1504       O  0.01010064  0.98505223  0.05095215    -0.77700
C1505       C  0.57794311  0.59075529  0.11995604     0.84500
C1506       C  0.91608279  0.59631886  0.12512530     0.84800
O1507       O  0.94548561  0.59891437  0.10722082    -0.80100
C1508       C  0.72332675  0.79493791  0.13401777     0.30900
C1509       C  0.78704348  0.73337434  0.13345063     0.30900
C1510       C  0.76488066  0.80415506  0.12266315    -0.05300
C1511       C  0.73430720  0.77552459  0.16408171    -0.06100
C1512       C  0.71687067  0.75856612  0.11532830    -0.06000
C1513       C  0.79744987  0.77283320  0.12302776    -0.05300
C1514       C  0.76783731  0.74515688  0.16397843    -0.06100
C1515       C  0.75003373  0.72741105  0.11454112    -0.06000
C1516       C  0.83317303  0.78898301  0.12375355    -0.31400
N1517       N  0.82331261  0.82855170  0.12173118     0.15100
C1518       C  0.78199734  0.83836587  0.12106847    -0.31400
H1519       H  0.76581552  0.86835489  0.12057850     0.17100
C1520       C  0.77681971  0.73609793  0.19303085    -0.30400
N1521       N  0.74805433  0.75770288  0.21034671     0.13900
C1522       C  0.72108738  0.78065336  0.19284048    -0.30300
C1523       C  0.73380076  0.69297643  0.11032946    -0.30600
N1524       N  0.69246177  0.70160585  0.10939240     0.14400
H1525       H  0.75051996  0.66335377  0.11212867     0.17000
C1526       C  0.68182076  0.74100211  0.11291553    -0.30600
H1527       H  0.65080331  0.75513489  0.11782831     0.17000
H1528       H  0.69386320  0.79935733  0.20062901     0.17000
H1529       H  0.86389217  0.77346189  0.12728375     0.17100
H1530       H  0.80251969  0.71565219  0.20121699     0.17000
C1531       C  0.95985685  0.53725623  0.40612327     0.30900
C1532       C  0.52325693  0.97798150  0.41029467     0.30900
C1533       C  0.94980210  0.50008875  0.42186233    -0.05300
C1534       C  0.97512086  0.51950991  0.37593798    -0.06100
C1535       C  0.49935043  0.54471872  0.42201238    -0.06000
C1536       C  0.98162775  0.96943422  0.42186994    -0.05300
C1537       C  0.51207552  0.99495646  0.37929428    -0.06100
C1538       C  0.53129777  0.51275942  0.42238186    -0.06000
C1539       C  0.96402828  0.93521000  0.42094224    -0.31400
N1540       N  0.92266439  0.94512341  0.42013203     0.15100
C1541       C  0.91339784  0.98485634  0.41925244    -0.31400
H1542       H  0.88309631  0.49931982  0.41803543     0.17100
C1543       C  0.52492039  0.98756835  0.35042806    -0.30400
N1544       N  0.99318726  0.50157995  0.33001440     0.13900
C1545       C  0.96521637  0.52536029  0.34664499    -0.30300
C1546       C  0.56745896  0.52831795  0.42382673    -0.30600
N1547       N  0.55835830  0.56786450  0.42695295     0.14400
H1548       H  0.59795572  0.51261790  0.41967378     0.17000
C1549       C  0.51720507  0.57829345  0.42543684    -0.30600
H1550       H  0.50170379  0.60866214  0.42432151     0.17000
H1551       H  0.93951018  0.54495215  0.33786756     0.17000
H1552       H  0.98023255  0.90528209  0.41888273     0.17100
H1553       H  0.55096001  0.96687944  0.34279725     0.17000
O1554       O  0.69982203  0.67696550  0.43604999    -0.77600
C1555       C  0.82844368  0.67339569  0.41843937     0.83400
O1556       O  0.73455259  0.78706376  0.49102654    -0.78700
O1557       O  0.81594221  0.80393064  0.40288775    -0.80200
O1558       O  0.70417285  0.75549484  0.35029285    -0.80000
O1559       O  0.66049359  0.70971009  0.40182061    -0.78600
Zn1560     Zn  0.74550010  0.70782268  0.44494566     1.55700
O1561       O  0.77182872  0.75421253  0.35103149    -0.80000
Cd1562     Cd  0.68975514  0.75738165  0.39451817     1.59700
Cd1563     Cd  0.73237882  0.80290934  0.44682150     1.59600
O1564       O  0.64928143  0.80872980  0.40110244    -0.80000
O1565       O  0.73898249  0.75505060  0.42078960    -1.90500
Cd1566     Cd  0.78806233  0.75435499  0.39506936     1.59900
O1567       O  0.67754729  0.83892533  0.43761483    -0.80000
O1568       O  0.82950148  0.70340755  0.40205733    -0.78600
C1569       C  0.74030231  0.75329052  0.50340263     0.83900
C1570       C  0.66905829  0.68027932  0.41879946     0.83500
O1571       O  0.79832503  0.67161549  0.43583633    -0.77600
C1572       C  0.73832069  0.75454687  0.33689713     0.84400
O1573       O  0.74488411  0.72117377  0.48850525    -0.77700
C1574       C  0.64918101  0.83793307  0.41863532     0.84500
C1575       C  0.80869988  0.83332976  0.42059965     0.84800
O1576       O  0.77862972  0.83663747  0.43873006    -0.80100
C1577       C  0.58796143  0.61679303  0.39867803    -0.11400
C1578       C  0.58751772  0.59441865  0.42426268     0.05600
C1579       C  0.61576775  0.59788708  0.44675569    -0.06700
C1580       C  0.64285674  0.62534746  0.44416269    -0.07400
C1581       C  0.64217163  0.64950958  0.41920974    -0.02000
C1582       C  0.61509032  0.64425089  0.39585014     0.04800
N1583       N  0.61503407  0.66580150  0.36897729     0.67300
H1584       H  0.56718193  0.61282874  0.38096434     0.16200
H1585       H  0.66343831  0.62859636  0.46219162     0.15900
N1586       N  0.61591279  0.57508365  0.47297514     0.75000
O1587       O  0.63273177  0.64892773  0.34657788    -0.38400
O1588       O  0.58899722  0.69651001  0.36565773    -0.38300
O1589       O  0.64494643  0.54715188  0.47721404    -0.39100
O1590       O  0.59349579  0.58867134  0.49440983    -0.39100
C1591       C  0.61041306  0.89951823  0.44004551    -0.11400
C1592       C  0.61590641  0.87229668  0.41665655     0.05600
C1593       C  0.58999158  0.87913084  0.39190882    -0.05500
C1594       C  0.56021690  0.91282650  0.39092869    -0.07400
C1595       C  0.55684442  0.94197210  0.41312944    -0.02000
C1596       C  0.58111747  0.93362642  0.43887643     0.04800
N1597       N  0.57565282  0.95790405  0.46478495     0.67300
H1598       H  0.62869503  0.89415886  0.45977523     0.16200
H1599       H  0.53937995  0.91577778  0.37252360     0.15900
N1600       N  0.59439489  0.85332514  0.36684918     0.75000
O1601       O  0.04901438  0.95017189  0.48374057    -0.38400
O1602       O  0.10394173  0.97550512  0.47308188    -0.38300
O1603       O  0.56691437  0.83214588  0.36158419    -0.39100
O1604       O  0.61887763  0.85950443  0.34650755    -0.39100
C1605       C  0.89877394  0.57618320  0.43230893    -0.11400
C1606       C  0.92597811  0.57352392  0.40800859     0.05600
C1607       C  0.92319439  0.60694828  0.38913589    -0.06700
C1608       C  0.89132562  0.63875037  0.39325788    -0.07400
C1609       C  0.86250017  0.63947832  0.41625409    -0.02000
C1610       C  0.86693202  0.60764748  0.43616573     0.04800
N1611       N  0.84006128  0.60662071  0.46089257     0.67300
H1612       H  0.90222125  0.55387039  0.44921758     0.16200
H1613       H  0.88949322  0.66339266  0.37822420     0.15900
N1614       N  0.95274111  0.61083758  0.36646119     0.75000
O1615       O  0.81146508  0.58584248  0.45923644    -0.38400
O1616       O  0.85197839  0.61611438  0.48596051    -0.38300
O1617       O  0.94020295  0.61512153  0.34029180    -0.39100
O1618       O  0.98469948  0.62506470  0.37325334    -0.39100
C1619       C  0.86322363  0.92071303  0.44117659    -0.11400
C1620       C  0.89309739  0.91847641  0.41909441     0.05600
C1621       C  0.89350054  0.89054335  0.39630826    -0.06700
C1622       C  0.86572665  0.86319290  0.39707309    -0.07400
C1623       C  0.83638327  0.86410330  0.41997222    -0.02000
C1624       C  0.83463302  0.89434534  0.44169393     0.04800
N1625       N  0.80451081  0.89881285  0.46467881     0.67300
H1626       H  0.86246465  0.94295147  0.45834553     0.16200
H1627       H  0.86680564  0.84158235  0.37941101     0.15900
N1628       N  0.92048847  0.89123761  0.37161056     0.75000
O1629       O  0.81409535  0.88407381  0.48951715    -0.38400
O1630       O  0.77402824  0.92587919  0.46276279    -0.38300
O1631       O  0.95258311  0.86603011  0.36951939    -0.39100
O1632       O  0.91534769  0.92019792  0.35422626    -0.39100
C1633       C  0.77697577  0.75892622  0.29020396    -0.11400
C1634       C  0.73966799  0.75446117  0.30412207     0.05600
C1635       C  0.70508106  0.75084907  0.28628161    -0.06700
C1636       C  0.70857497  0.75206517  0.25555340    -0.07400
C1637       C  0.74591135  0.75641158  0.24193072    -0.02000
C1638       C  0.78035138  0.75996489  0.25955855     0.04800
N1639       N  0.81846191  0.76689011  0.24691131     0.67300
H1640       H  0.80378893  0.76232276  0.30308303     0.16200
H1641       H  0.68210513  0.74910263  0.24217813     0.15900
N1642       N  0.66633093  0.74523298  0.29862991     0.75000
O1643       O  0.82614552  0.80193118  0.24573275    -0.38400
O1644       O  0.84790274  0.73866324  0.24536651    -0.38300
O1645       O  0.63782511  0.77432521  0.30023543    -0.39100
O1646       O  0.65733164  0.71065801  0.29984876    -0.39100
C1647       C  0.53066391  0.51847063  0.25335564    -0.11400
C1648       C  0.99971908  0.50403497  0.23615365     0.05600
C1649       C  0.96869714  0.99429300  0.25454884    -0.06700
C1650       C  0.96907436  0.99462195  0.28543458    -0.07400
C1651       C  0.99585756  0.50197911  0.29844981    -0.02000
C1652       C  0.52871647  0.51813626  0.28417548     0.04800
N1653       N  0.55739936  0.53683775  0.30062828     0.67300
H1654       H  0.55497745  0.53143039  0.24288942     0.16200
H1655       H  0.94606362  0.98160301  0.29747231     0.15900
N1656       N  0.93876063  0.97477382  0.24009241     0.75000
O1657       O  0.59227349  0.51774240  0.30640267    -0.38400
O1658       O  0.55170347  0.57404823  0.30314852    -0.38300
O1659       O  0.94459519  0.93747344  0.23861440    -0.39100
O1660       O  0.90283396  0.99308923  0.23673076    -0.39100
C1661       C  0.63170828  0.67551417  0.09263593    -0.11400
C1662       C  0.66434894  0.67373663  0.11221089     0.05600
C1663       C  0.66809882  0.64598033  0.13512506    -0.06700
C1664       C  0.63995059  0.61905391  0.13729238    -0.07400
C1665       C  0.60701430  0.62022974  0.11738377    -0.02000
C1666       C  0.60291273  0.64955583  0.09503719     0.04800
N1667       N  0.56966737  0.65402293  0.07459304     0.67300
H1668       H  0.62857060  0.69742532  0.07536783     0.16200
H1669       H  0.64340290  0.59778354  0.15501286     0.15900
N1670       N  0.69913744  0.64630851  0.15707976     0.75000
O1671       O  0.54076019  0.68245710  0.07803598    -0.38400
O1672       O  0.57486023  0.63736824  0.04970034    -0.38300
O1673       O  0.69926904  0.67653477  0.17319756    -0.39100
O1674       O  0.72967420  0.61914811  0.15733118    -0.39100
C1675       C  0.65151903  0.89439068  0.14867174    -0.11400
C1676       C  0.62537461  0.89652229  0.12424841     0.05600
C1677       C  0.63228984  0.86605047  0.10290801    -0.06700
C1678       C  0.66373548  0.83424404  0.10687654    -0.07400
C1679       C  0.68884575  0.83069083  0.13213733    -0.02000
C1680       C  0.68343803  0.86288664  0.15255018     0.04800
N1681       N  0.71150770  0.86686870  0.17594033     0.67300
H1682       H  0.64806478  0.91806322  0.16483164     0.16200
H1683       H  0.66900170  0.81283191  0.08918945     0.15900
N1684       N  0.60907991  0.86730416  0.07633749     0.75000
O1685       O  0.74107382  0.88523547  0.17045685    -0.38400
O1686       O  0.69791873  0.86842446  0.20201750    -0.38300
O1687       O  0.62434204  0.87929249  0.05314580    -0.39100
O1688       O  0.58058274  0.84647749  0.07424578    -0.39100
C1689       C  0.82243106  0.66718251  0.15150108    -0.11400
C1690       C  0.82128624  0.69802685  0.13107527     0.05600
C1691       C  0.84793558  0.69172492  0.10626604    -0.06700
C1692       C  0.87864131  0.65876562  0.10519492    -0.07400
C1693       C  0.88203680  0.62989624  0.12722247    -0.02000
C1694       C  0.85252797  0.63381097  0.15014570     0.04800
N1695       N  0.85199039  0.60422344  0.17215605     0.67300
H1696       H  0.79875433  0.66767440  0.16803871     0.16200
H1697       H  0.89910282  0.65519374  0.08630650     0.15900
N1698       N  0.84231150  0.71618759  0.08073049     0.75000
O1699       O  0.86647399  0.60978739  0.19725781    -0.38400
O1700       O  0.82781166  0.57906118  0.16923251    -0.38300
O1701       O  0.86918382  0.73760874  0.07439529    -0.39100
O1702       O  0.81929965  0.70681365  0.06051636    -0.39100
C1703       C  0.88513722  0.90652728  0.14304571    -0.11400
C1704       C  0.90716206  0.91026050  0.11695439     0.05600
C1705       C  0.90199031  0.88558438  0.09262303    -0.06700
C1706       C  0.87456781  0.85823520  0.09485917    -0.07400
C1707       C  0.85219773  0.85545683  0.12080598    -0.02000
C1708       C  0.85774592  0.87951914  0.14514652     0.04800
N1709       N  0.83641759  0.87676076  0.17232843     0.67300
H1710       H  0.88937231  0.92444559  0.16219873     0.16200
H1711       H  0.86990213  0.83967094  0.07615334     0.15900
N1712       N  0.92255024  0.88905834  0.06520563     0.75000
O1713       O  0.85080641  0.85046379  0.19039430    -0.38400
O1714       O  0.81347228  0.90712095  0.18190385    -0.38300
O1715       O  0.95373472  0.86423398  0.05871307    -0.39100
O1716       O  0.90383995  0.90951406  0.04503290    -0.39100
C1717       C  0.59779289  0.65399798  0.94588605    -0.11400
C1718       C  0.60033393  0.62706646  0.92218040     0.05600
C1719       C  0.62993253  0.62944711  0.89970628    -0.06700
C1720       C  0.65805552  0.65610650  0.90259323    -0.07400
C1721       C  0.65623611  0.68171410  0.92684795    -0.02000
C1722       C  0.62505044  0.68157825  0.94806210     0.04800
N1723       N  0.62130835  0.70867897  0.97232605     0.67300
H1724       H  0.57505636  0.65337712  0.96304043     0.16200
H1725       H  0.68091261  0.65744213  0.88562699     0.15900
N1726       N  0.63083158  0.60653216  0.87319807     0.75000
O1727       O  0.59765030  0.74117785  0.97020620    -0.38400
O1728       O  0.63341607  0.69654248  0.99742546    -0.38300
O1729       O  0.61351234  0.62219277  0.85052616    -0.39100
O1730       O  0.65701286  0.57573271  0.87040874    -0.39100
C1731       C  0.87289089  0.66375725  0.93826536    -0.11400
C1732       C  0.87985907  0.63509400  0.91590359     0.05600
C1733       C  0.85312762  0.63849008  0.89137445    -0.06700
C1734       C  0.82192755  0.67073292  0.88924578    -0.07400
C1735       C  0.81729462  0.70149179  0.91004994    -0.02000
C1736       C  0.84127743  0.69592275  0.93611278     0.04800
N1737       N  0.83216908  0.72058392  0.96158921     0.67300
H1738       H  0.89120686  0.66060817  0.95810032     0.16200
H1739       H  0.80005751  0.67016346  0.87170507     0.15900
N1740       N  0.85684015  0.60967705  0.86818636     0.75000
O1741       O  0.80531214  0.71237170  0.97952331    -0.38400
O1742       O  0.85851738  0.74119106  0.97050395    -0.38300
O1743       O  0.83154476  0.58533509  0.86705254    -0.39100
O1744       O  0.87710647  0.61547182  0.84537580    -0.39100
C1745       C  0.66270865  0.83987881  0.93309117    -0.11400
C1746       C  0.68793617  0.83615712  0.90771731     0.05600
C1747       C  0.68431976  0.86890386  0.88821688    -0.06700
C1748       C  0.65348577  0.90137181  0.89306883    -0.07400
C1749       C  0.62621550  0.90284222  0.91710729    -0.02000
C1750       C  0.63152648  0.87161852  0.93743152     0.04800
N1751       N  0.60596712  0.87132014  0.96294023     0.67300
H1752       H  0.66704272  0.81829316  0.95037309     0.16200
H1753       H  0.65091482  0.92554062  0.87767055     0.15900
N1754       N  0.71176521  0.87111300  0.86390075     0.75000
O1755       O  0.57540298  0.85298704  0.96180859    -0.38400
O1756       O  0.62017252  0.87890700  0.98773876    -0.38300
O1757       O  0.69692585  0.87345591  0.83828538    -0.39100
O1758       O  0.74424631  0.88570758  0.86832957    -0.39100
C1759       C  0.90885019  0.88544938  0.94030919    -0.11400
C1760       C  0.90302847  0.91611973  0.91959508     0.05600
C1761       C  0.87029017  0.91748605  0.89927386    -0.06700
C1762       C  0.84433367  0.88880715  0.90037773    -0.07400
C1763       C  0.84974970  0.85899798  0.92155440    -0.02000
C1764       C  0.88246235  0.85715813  0.94148701     0.04800
N1765       N  0.88793436  0.82824388  0.96419370     0.67300
H1766       H  0.93338111  0.88373510  0.95620857     0.16200
H1767       H  0.81964838  0.88992816  0.88475783     0.15900
N1768       N  0.86218051  0.94788980  0.87770405     0.75000
O1769       O  0.91633524  0.79921003  0.96155271    -0.38400
O1770       O  0.87317703  0.83745288  0.98942507    -0.38300
O1771       O  0.87482247  0.94087343  0.85165665    -0.39100
O1772       O  0.83409137  0.97665071  0.88260249    -0.39100
C1773       C  0.97174904  0.01780975  0.75923386    -0.11400
C1774       C  0.50890573  0.01759569  0.74432937     0.05600
C1775       C  0.54594910  0.52378424  0.76344895    -0.06700
C1776       C  0.54336657  0.52359250  0.79412583    -0.07400
C1777       C  0.50595680  0.01893021  0.80641041    -0.02000
C1778       C  0.96981498  0.01872462  0.78985734     0.04800
N1779       N  0.93038687  0.01969376  0.80345991     0.67300
H1780       H  0.94391771  0.01655890  0.74702546     0.16200
H1781       H  0.56943411  0.52999335  0.80663269     0.15900
N1782       N  0.58218134  0.53379464  0.74976158     0.75000
O1783       O  0.90686953  0.05231412  0.80571495    -0.38400
O1784       O  0.91543572  0.98794916  0.80590358    -0.38300
O1785       O  0.58699902  0.56969482  0.74858040    -0.39100
O1786       O  0.61310479  0.50738992  0.74658731    -0.39100
C1787       C  0.70789164  0.75558065  0.75003264    -0.11400
C1788       C  0.74568003  0.75008923  0.73478986     0.05600
C1789       C  0.78239190  0.74620815  0.75138331    -0.06700
C1790       C  0.78044152  0.74901982  0.78212244    -0.07400
C1791       C  0.74267808  0.75481697  0.79732384    -0.02000
C1792       C  0.70600761  0.75773074  0.78083453     0.04800
N1793       N  0.66658609  0.76103212  0.79473709     0.67300
H1794       H  0.67921419  0.75815074  0.73800983     0.16200
H1795       H  0.80897573  0.74679892  0.79423316     0.15900
N1796       N  0.82204604  0.73824995  0.73772122     0.75000
O1797       O  0.64379853  0.79419686  0.79496015    -0.38400
O1798       O  0.65025215  0.73015316  0.79783618    -0.38300
O1799       O  0.84228145  0.76638535  0.73374162    -0.39100
O1800       O  0.84066533  0.70317494  0.73718712    -0.39100
C1801       C  0.89378433  0.63466152  0.64735905    -0.11400
C1802       C  0.86340621  0.63027409  0.62645760     0.05600
C1803       C  0.86636893  0.59399015  0.61110593    -0.06700
C1804       C  0.89920121  0.56391928  0.61653427    -0.07400
C1805       C  0.92851092  0.56691464  0.63875803    -0.02000
C1806       C  0.92623280  0.60431980  0.65344904     0.04800
N1807       N  0.95710547  0.61414720  0.67318027     0.67300
H1808       H  0.89309646  0.66253950  0.65899752     0.16200
H1809       H  0.90190097  0.53820353  0.60238214     0.15900
N1810       N  0.83652363  0.58665999  0.58981897     0.75000
O1811       O  0.94666446  0.62234621  0.69955183    -0.38400
O1812       O  0.98597366  0.63025759  0.66261358    -0.38300
O1813       O  0.84499835  0.58883427  0.56281637    -0.39100
O1814       O  0.80809976  0.56776199  0.59751631    -0.39100
C1815       C  0.59569811  0.86965519  0.65215497    -0.11400
C1816       C  0.61931479  0.86498894  0.62618390     0.05600
C1817       C  0.61160081  0.89407161  0.60426929    -0.06700
C1818       C  0.58226634  0.92731103  0.60911416    -0.07400
C1819       C  0.56034183  0.93389311  0.63588974    -0.02000
C1820       C  0.56602706  0.90310561  0.65710906     0.04800
N1821       N  0.54166650  0.90391352  0.68336916     0.67300
H1822       H  0.60019791  0.84714134  0.66890553     0.16200
H1823       H  0.57631937  0.94767950  0.59103826     0.15900
N1824       N  0.63239257  0.89023603  0.57646491     0.75000
O1825       O  0.50624371  0.89430293  0.68172304    -0.38400
O1826       O  0.55964257  0.90059214  0.70791721    -0.38300
O1827       O  0.61397216  0.87903948  0.55434226    -0.39100
O1828       O  0.66289807  0.90808604  0.57252384    -0.39100
C1829       C  0.87010227  0.85113315  0.64064885    -0.11400
C1830       C  0.83947671  0.85621200  0.61899648     0.05600
C1831       C  0.83687837  0.88972527  0.60054595    -0.06700
C1832       C  0.86521859  0.91633868  0.60379945    -0.07400
C1833       C  0.89618992  0.91039859  0.62511201    -0.02000
C1834       C  0.89812501  0.87755243  0.64385890     0.04800
N1835       N  0.92729830  0.87099062  0.66709370     0.67300
H1836       H  0.87239391  0.82648102  0.65573965     0.16200
H1837       H  0.86354148  0.94154441  0.58921514     0.15900
N1838       N  0.80654434  0.89697515  0.57807401     0.75000
O1839       O  0.91838825  0.88768212  0.69163754    -0.38400
O1840       O  0.95379544  0.84019929  0.66617073    -0.38300
O1841       O  0.77381112  0.92034061  0.58337447    -0.39100
O1842       O  0.81708639  0.88932267  0.55168590    -0.39100
C1843       C  0.62902050  0.63021720  0.64118357    -0.11400
C1844       C  0.63997625  0.64713582  0.61479701     0.05600
C1845       C  0.62260710  0.63676959  0.58804352    -0.06700
C1846       C  0.59423474  0.61024270  0.58812106    -0.07400
C1847       C  0.58364279  0.59325357  0.61433441    -0.02000
C1848       C  0.60134608  0.60293861  0.64108705     0.04800
N1849       N  0.59153400  0.58534697  0.66818792     0.67300
H1850       H  0.64246189  0.63767338  0.66174117     0.16200
H1851       H  0.58069722  0.60238387  0.56761163     0.15900
N1852       N  0.63239677  0.65377804  0.56076980     0.75000
O1853       O  0.61554670  0.55610151  0.67793969    -0.38400
O1854       O  0.56554730  0.60451756  0.68541079    -0.38300
O1855       O  0.65614950  0.63318633  0.54281902    -0.39100
O1856       O  0.60972614  0.68434539  0.55173517    -0.39100
loop_ 
_geom_bond_atom_site_label_1 
_geom_bond_atom_site_label_2 
_geom_bond_distance 
_geom_bond_site_symmetry_2 
_ccdc_geom_bond_type 
O1           C17   1.276       .  A
O1           Zn7   2.023       .  S
C2           O18   1.276       .  A
C2           O15   1.273       .  A
C2          C438   1.479       .  S
O3           C16   1.274       .  A
O3          Cd10   2.076       .  S
O4           C22   1.276       .  A
O4          Cd13   2.054       .  S
O5           C19   1.279       .  A
O5           Cd9   2.111       .  S
O6           C17   1.278       .  A
O6           Cd9   2.074       .  S
Zn7          O18   2.035       .  S
Zn7          O20   2.047       .  S
Zn7          O12   1.956       .  S
O8           C19   1.275       .  A
O8          Cd13   2.092       .  S
Cd9          O11   2.100       .  S
Cd9          O12   2.003       .  S
Cd10         O14   2.057       .  S
Cd10         O23   2.071       .  S
Cd10         O12   2.010       .  S
O11          C21   1.281       .  A
O12         Cd13   1.991       .  S
Cd13         O15   2.049       .  S
O14          C21   1.273       .  A
C16          O20   1.277       .  A
C16         C177   1.480       .  S
C17         C424   1.489       .  S
C19         C396   1.501       .  S
C21         C452   1.483       .  S
C22          O23   1.274       .  A
C22         C410   1.485       .  S
C24          C27   1.536       .  S
C24         C427   1.542       .  S
C24         C954   1.529   1_455  S
C24         C492   1.537       .  S
C25          C30   1.539       .  S
C25         C413   1.536       .  S
C25         C493   1.538   1_545  S
C25         C959   1.541       .  S
C26         C952   1.530       .  S
C26          C34   1.377       .  A
C26          C29   1.389       .  A
C27          C38   1.373       .  A
C27        C1422   1.402   1_455  A
C28         C488   1.541   1_545  S
C28          C42   1.385       .  A
C28          C31   1.410       .  A
C29         C489   1.540       .  S
C29          C32   1.380       .  A
C30          C36   1.367       .  A
C30        C1419   1.399   1_545  A
C31         C953   1.541   1_455  S
C31          C39   1.381       .  A
C32          N33   1.351       .  A
C32          H45   1.095       .  S
N33          C34   1.354       .  A
N33         C441   1.428       .  S
C34          H35   1.071       .  S
C36        N1429   1.353       .  A
C36          H46   1.090       .  S
N37          C38   1.353       .  A
N37        C1428   1.355   1_455  A
N37         C382   1.425       .  S
C38          H44   1.084       .  S
C39          N40   1.348       .  A
C39          H41   1.076       .  S
N40          C42   1.345       .  A
N40         C455   1.431       .  S
C42          H43   1.091       .  S
O47          C63   1.278       .  A
O47         Zn53   2.027   1_455  S
C48          O64   1.280       .  A
C48          O61   1.268       .  A
C48         C340   1.485       .  S
O49         C526   1.272   1_556  A
O49         Cd56   2.049       .  S
O50          C68   1.269       .  A
O50        Cd523   2.043       .  S
O51         C529   1.274       .  A
O51         Cd55   2.068       .  S
O52          C63   1.271       .  A
O52         Cd55   2.045       .  S
Zn53         O66   2.056       .  S
Zn53        O992   2.044       .  S
Zn53         O58   1.936   1_655  S
O54        C1457   1.268       .  A
O54         Cd59   2.034       .  S
Cd55        O521   2.054   1_545  S
Cd55         O58   1.991       .  S
Cd56         O60   2.049       .  S
Cd56        O997   2.049   1_455  S
Cd56        O522   1.978       .  S
O57          C67   1.274       .  A
O57        Cd519   2.060       .  S
O58        Cd520   1.987   1_545  S
O58        Cd987   1.990   1_455  S
Cd59         O61   2.034       .  S
Cd59        O514   2.033   1_545  S
Cd59        O986   1.991       .  S
O60          C67   1.271       .  A
C62          O66   1.279   1_454  A
C62         O513   1.274   1_544  A
C62        C1036   1.477       .  S
C63         C326   1.485       .  S
O64        Zn981   2.043       .  S
C65         O515   1.271       .  A
C65        O1446   1.268   1_455  A
C65         C385   1.473       .  S
C67         C357   1.481       .  S
C68          O69   1.273       .  A
C68         C368   1.478       .  S
O69        Cd984   2.048       .  S
C70          C72   1.525       .  S
C70          C74   1.538       .  S
C70          C73   1.559       .  S
C70         C343   1.530       .  S
C71          C75   1.534       .  S
C71          C77   1.545       .  S
C71          C76   1.544       .  S
C71         C354   1.534       .  S
C72          C80   1.377       .  A
C72          C75   1.385       .  A
C73          C84   1.387       .  A
C73          C76   1.396       .  A
C74          C88   1.378       .  A
C74          C77   1.406       .  A
C75          C78   1.373       .  A
C76          C82   1.385       .  A
C77          C85   1.385       .  A
C78          N79   1.356       .  A
C78          H91   1.081       .  S
N79          C80   1.354       .  A
N79         C371   1.430       .  S
C80          H81   1.078       .  S
C82          N83   1.358       .  A
C82          H92   1.076       .  S
N83          C84   1.357       .  A
N83         C399   1.443       .  S
C84          H90   1.088       .  S
C85          N86   1.349       .  A
C85          H87   1.085       .  S
N86          C88   1.353       .  A
N86         C329   1.436       .  S
C88          H89   1.080       .  S
O93         C109   1.274       .  A
O93       Zn1027   2.013       .  S
C94         O110   1.273       .  A
C94         O107   1.271       .  A
C94         C312   1.473       .  S
O95         C108   1.273       .  A
O95        Cd102   2.077       .  S
O96         C114   1.272       .  A
O96        Cd105   2.055       .  S
O97        C1039   1.279       .  A
O97        Cd101   2.100       .  S
O98         C109   1.278       .  A
O98        Cd565   2.072       .  S
Zn99        O110   2.026       .  S
Zn99        O112   2.025       .  S
Zn99       O1021   2.014       .  S
Zn99        O568   1.952       .  S
O100        C111   1.272       .  A
O100       Cd105   2.074       .  S
Cd101       O103   2.085       .  S
Cd101       O562   2.066   1_545  S
Cd101      O1032   1.992       .  S
Cd102       O115   2.063       .  S
Cd102      O1034   2.057       .  S
Cd102       O104   1.988       .  S
O103        C113   1.278       .  A
O104       Zn563   1.958   1_545  S
O104       Cd105   1.992       .  S
O104      Cd1029   1.992       .  S
Cd105       O571   2.019   1_545  S
O106        C113   1.274       .  A
O106      Cd1030   2.057   1_455  S
O107       Cd569   2.035       .  S
C108        O576   1.276   1_545  A
C108        C990   1.477       .  S
C109        C284   1.489       .  S
C111       O1025   1.279       .  A
C111        C256   1.493       .  S
O112        C572   1.276       .  A
C113        C273   1.478       .  S
C114        O115   1.276       .  A
C114        C301   1.478       .  S
C116        C118   1.542       .  S
C116        C120   1.544       .  S
C116        C119   1.541       .  S
C116        C287   1.540       .  S
C117        C121   1.520       .  S
C117        C123   1.529       .  S
C117        C122   1.551       .  S
C117        C298   1.525       .  S
C118        C126   1.377       .  A
C118        C121   1.401       .  A
C119        C130   1.375       .  A
C119        C122   1.394       .  A
C120        C134   1.385       .  A
C120        C123   1.402       .  A
C121        C124   1.374       .  A
C122        C128   1.386       .  A
C123        C131   1.376       .  A
C124        N125   1.346       .  A
C124        H137   1.082       .  S
N125        C126   1.350       .  A
N125        C315   1.422       .  S
C126        H127   1.079       .  S
C128        N129   1.358       .  A
C128        H138   1.079       .  S
N129        C130   1.357       .  A
N129        C245   1.442       .  S
C130        H136   1.081       .  S
C131        N132   1.346       .  A
C131        H133   1.083       .  S
N132        C134   1.350       .  A
N132        C270   1.425       .  S
C134        H135   1.083       .  S
C139        C141   1.533       .  S
C139        C142   1.540       .  S
C139        C214   1.537       .  S
C139       C1071   1.537       .  S
C140        C145   1.549       .  S
C140        C203   1.526       .  S
C140       C1072   1.527   1_455  S
C140        C610   1.521       .  S
C141        C613   1.377   1_545  A
C141        C608   1.399   1_545  A
C142        C153   1.375       .  A
C142       C1537   1.397   1_545  A
C143       C1067   1.537       .  S
C143        C157   1.375   1_655  A
C143        C146   1.406   1_655  A
C144       C1068   1.527       .  S
C144        C147   1.376       .  A
C144        C605   1.400       .  A
C145        C151   1.382       .  A
C145       C1534   1.400   1_455  A
C146        C604   1.530   1_545  S
C146        C154   1.378       .  A
C147        N148   1.348       .  A
C147        H160   1.082       .  S
N148        C149   1.346       .  A
N148        C228   1.421       .  S
C149        C605   1.378       .  A
C149        H614   1.087       .  S
H150        C613   1.081       .  S
C151       N1544   1.355   1_455  A
C151        H161   1.084       .  S
N152        C153   1.352       .  A
N152       C1543   1.357   1_545  A
N152        C259   1.435       .  S
C153        H159   1.082       .  S
C154        N155   1.347       .  A
C154        H156   1.086       .  S
N155        C157   1.349       .  A
N155        C186   1.428       .  S
C157        H158   1.081   1_455  S
O162        C178   1.275       .  A
O162       Zn168   1.998       .  S
C163        O179   1.273       .  A
C163        O176   1.277       .  A
C163        C217   1.485       .  S
O164        C177   1.275       .  A
O164       Cd171   2.088       .  S
O165        C183   1.275       .  A
O165       Cd174   2.067       .  S
O166        C180   1.271       .  A
O166       Cd170   2.068       .  S
O167        C178   1.270       .  A
O167       Cd170   2.040       .  S
Zn168       O179   2.014       .  S
Zn168       O181   2.041       .  S
Zn168       O173   1.941       .  S
O169        C180   1.277       .  A
O169       Cd174   2.090       .  S
Cd170       O172   2.033       .  S
Cd170       O173   2.006       .  S
Cd171       O175   2.071       .  S
Cd171       O184   2.069       .  S
Cd171       O173   1.998       .  S
O172        C182   1.269       .  A
O173       Cd174   1.985       .  S
Cd174       O176   2.062       .  S
O175        C182   1.278       .  A
C177        O181   1.276       .  A
C178        C189   1.476       .  S
C180        C242   1.497       .  S
C182        C200   1.480       .  S
C183        O184   1.275       .  A
C183        C231   1.479       .  S
C185        C186   1.399       .  A
C185        C190   1.394       .  A
C185        H192   1.068       .  S
C186        C187   1.401       .  A
C187        C188   1.391       .  A
C187        N194   1.427       .  S
C188        C189   1.406       .  A
C188        H193   1.082       .  S
C189        C190   1.416       .  A
C190        N191   1.431       .  S
N191        O195   1.262       .  A
N191        O196   1.262       .  A
N194        O198   1.262       .  A
N194        O197   1.262       .  A
C199        C200   1.399       .  A
C199        C204   1.395       .  A
C199        H206   1.080       .  S
C200        C201   1.415       .  A
C201        C202   1.395       .  A
C201        N208   1.429       .  S
C202        C203   1.403       .  A
C202        H207   1.076       .  S
C203        C204   1.423       .  A
C204        N205   1.431       .  S
N205       O1137   1.262       .  A
N205       O1138   1.262       .  A
N208        O212   1.262       .  A
N208        O211   1.262       .  A
O209       N1133   1.262       .  A
O210       N1133   1.262       .  A
C213        C214   1.411       .  A
C213        C218   1.397       .  A
C213        H220   1.081       .  S
C214        C215   1.426       .  A
C215        C216   1.397       .  A
C215        N222   1.431       .  S
C216        C217   1.400       .  A
C216        H221   1.083       .  S
C217        C218   1.411       .  A
C218        N219   1.429       .  S
N219        O223   1.262       .  A
N219        O224   1.262       .  A
N222        O226   1.259       .  A
N222        O225   1.262       .  A
C227        C228   1.392       .  A
C227        C232   1.395       .  A
C227        H234   1.083       .  S
C228        C229   1.401       .  A
C229        C230   1.399       .  A
C229        N236   1.429       .  S
C230        C231   1.408       .  A
C230        H235   1.084       .  S
C231        C232   1.414       .  A
C232        N233   1.426       .  S
N233        O237   1.261       .  A
N233        O238   1.262       .  A
N236        O240   1.262       .  A
N236        O239   1.262       .  A
C241        C242   1.408       .  A
C241        C246   1.402       .  A
C241        H248   1.080       .  S
C242        C243   1.420       .  A
C243        C244   1.402       .  A
C243        N250   1.429       .  S
C244        C245   1.401       .  A
C244        H249   1.080       .  S
C245        C246   1.410       .  A
C246        N247   1.428       .  S
N247        O251   1.262       .  A
N247        O252   1.262       .  A
N250        O254   1.262       .  A
N250        O253   1.262       .  A
C255        C260   1.402       .  A
C255       C1184   1.407   1_455  A
C255        H262   1.081       .  S
C256       C1183   1.407       .  A
C256        C721   1.420   1_545  A
C257        C258   1.405       .  A
C257        C720   1.422       .  A
C257        N264   1.431       .  S
C258        C723   1.399       .  A
C258        H263   1.078       .  S
C259        C722   1.398   1_545  A
C259       C1188   1.406       .  A
C260       C1187   1.406   1_455  A
C260        N261   1.428       .  S
N261        O265   1.261       .  A
N261        O266   1.262       .  A
N264        O268   1.262       .  A
N264        O267   1.262       .  A
C269        C270   1.394       .  A
C269        C274   1.397       .  A
C269        H276   1.083       .  S
C270        C271   1.403       .  A
C271        C272   1.401       .  A
C271        N278   1.429       .  S
C272        C273   1.407       .  A
C272        H277   1.084       .  S
C273        C274   1.417       .  A
C274        N275   1.430       .  S
N275        O279   1.262       .  A
N275        O280   1.262       .  A
N278        O282   1.262       .  A
N278        O281   1.262       .  A
C283        C284   1.401       .  A
C283        C288   1.399       .  A
C283        H290   1.081       .  S
C284        C285   1.411       .  A
C285        C286   1.397       .  A
C285        N292   1.429       .  S
C286        C287   1.411       .  A
C286        H291   1.077       .  S
C287        C288   1.427       .  A
C288        N289   1.431       .  S
N289        O293   1.259       .  A
N289        O294   1.262       .  A
N292        O296   1.262       .  A
N292        O295   1.262       .  A
C297        C298   1.404       .  A
C297        C302   1.394       .  A
C297        H304   1.077       .  S
C298        C299   1.422       .  A
C299        C300   1.396       .  A
C299        N306   1.431       .  S
C300        C301   1.401       .  A
C300        H305   1.082       .  S
C301        C302   1.411       .  A
C302        N303   1.429       .  S
N303        O307   1.262       .  A
N303        O308   1.262       .  A
N306        O310   1.262       .  A
N306        O309   1.262       .  A
C311        C312   1.404       .  A
C311        C316   1.392       .  A
C311        H318   1.082       .  S
C312        C313   1.412       .  A
C313        C314   1.398       .  A
C313        N320   1.428       .  S
C314        C315   1.397       .  A
C314        H319   1.081       .  S
C315        C316   1.405       .  A
C316        N317   1.430       .  S
N317        O321   1.262       .  A
N317        O322   1.262       .  A
N320        O324   1.262       .  A
N320        O323   1.262       .  A
C325        C326   1.407       .  A
C325        C330   1.399       .  A
C325        H332   1.083       .  S
C326        C327   1.418       .  A
C327        C328   1.394       .  A
C327        N334   1.429       .  S
C328        C329   1.399       .  A
C328        H333   1.081       .  S
C329        C330   1.410       .  A
C330        N331   1.429       .  S
N331        O335   1.262       .  A
N331        O336   1.262   1_556  A
N334        O338   1.262       .  A
N334        O337   1.262       .  A
C339        C340   1.400       .  A
C339        C344   1.399       .  A
C339        H346   1.082       .  S
C340        C341   1.416       .  A
C341        C342   1.394       .  A
C341        N348   1.429       .  S
C342        C343   1.402       .  A
C342        H347   1.081       .  S
C343        C344   1.423       .  A
C344        N345   1.430       .  S
N345        O349   1.262       .  A
N345        O350   1.262       .  A
N348        O352   1.262       .  A
N348        O351   1.262       .  A
C353        C354   1.409       .  A
C353        C358   1.391       .  A
C353        H360   1.075       .  S
C354        C355   1.425       .  A
C355        C356   1.402       .  A
C355        N362   1.432       .  S
C356        C357   1.404       .  A
C356        H361   1.080       .  S
C357        C358   1.409       .  A
C358        N359   1.429       .  S
N359        O363   1.262       .  A
N359        O364   1.262       .  A
N362        O366   1.260       .  A
N362        O365   1.262       .  A
C367        C368   1.407       .  A
C367        C372   1.394       .  A
C367        H374   1.082       .  S
C368        C369   1.415       .  A
C369        C370   1.392       .  A
C369        N376   1.430       .  S
C370        C371   1.399       .  A
C370        H375   1.074       .  S
C371        C372   1.405       .  A
C372        N373   1.427       .  S
N373        O377   1.262       .  A
N373        O378   1.262       .  A
N376        O380   1.262       .  A
N376        O379   1.262       .  A
C381        C386   1.389       .  A
C381       C1310   1.397       .  A
C381        H388   1.080       .  S
C382       C1309   1.397   1_455  A
C382        C847   1.404       .  A
C383        C384   1.398       .  A
C383        C846   1.408       .  A
C383        N390   1.428       .  S
C384        C849   1.407       .  A
C384        H389   1.081       .  S
C385        C848   1.408       .  A
C385       C1314   1.414   1_455  A
C386       C1313   1.414       .  A
C386        N387   1.429       .  S
N387        O391   1.262       .  A
N387        O392   1.262       .  A
N390        O394   1.262   1_545  A
N390        O393   1.262       .  A
C395        C396   1.409       .  A
C395        C400   1.408       .  A
C395        H402   1.080       .  S
C396        C397   1.420       .  A
C397        C398   1.407       .  A
C397        N404   1.429       .  S
C398        C399   1.400       .  A
C398        H403   1.081       .  S
C399        C400   1.408       .  A
C400        N401   1.427       .  S
N401        O405   1.262       .  A
N401        O406   1.262       .  A
N404        O408   1.262       .  A
N404        O407   1.262       .  A
C409        C410   1.401       .  A
C409        C414   1.396       .  A
C409        H416   1.085       .  S
C410        C411   1.411       .  A
C411        C412   1.397       .  A
C411        N418   1.429       .  S
C412        C413   1.410       .  A
C412        H417   1.084       .  S
C413        C414   1.426       .  A
C414        N415   1.432       .  S
N415        O419   1.262       .  A
N415        O420   1.260       .  A
N418        O422   1.262       .  A
N418        O421   1.262       .  A
C423        C424   1.405       .  A
C423        C428   1.404       .  A
C423        H430   1.085       .  S
C424        C425   1.410       .  A
C425        C426   1.393       .  A
C425        N432   1.429       .  S
C426        C427   1.411       .  A
C426        H431   1.082       .  S
C427        C428   1.425       .  A
C428        N429   1.432       .  S
N429        O433   1.260       .  A
N429        O434   1.262       .  A
N432        O436   1.262       .  A
N432        O435   1.262       .  A
C437        C438   1.405       .  A
C437        C442   1.397       .  A
C437        H444   1.074       .  S
C438        C439   1.411       .  A
C439        C440   1.401       .  A
C439        N446   1.425       .  S
C440        C441   1.398       .  A
C440        H445   1.083       .  S
C441        C442   1.404       .  A
C442        N443   1.428       .  S
N443        O447   1.262       .  A
N443        O448   1.261       .  A
N446        O450   1.261       .  A
N446        O449   1.262       .  A
C451        C452   1.405       .  A
C451        C456   1.401       .  A
C451        H458   1.077       .  S
C452        C453   1.418       .  A
C453        C454   1.400       .  A
C453        N460   1.429       .  S
C454        C455   1.395       .  A
C454        H459   1.079       .  S
C455        C456   1.408       .  A
C456        N457   1.430       .  S
N457        O461   1.262       .  A
N457        O462   1.261       .  A
N460        O464   1.262       .  A
N460        O463   1.262       .  A
O465        C481   1.273       .  A
O465       Zn471   2.012       .  S
C466        O482   1.274       .  A
C466        O479   1.275       .  A
C466        C902   1.487       .  S
O467        C480   1.277       .  A
O467       Cd474   2.078       .  S
O468        C486   1.275       .  A
O468       Cd477   2.057       .  S
O469        C483   1.275       .  A
O469       Cd473   2.071       .  S
O470        C481   1.275       .  A
O470       Cd473   2.066       .  S
Zn471       O482   2.033       .  S
Zn471       O484   2.023       .  S
Zn471       O476   1.955       .  S
O472        C483   1.273       .  A
O472       Cd477   2.071       .  S
Cd473       O475   2.056       .  S
Cd473       O476   1.993       .  S
Cd474       O478   2.062       .  S
Cd474       O487   2.097       .  S
Cd474       O476   2.005       .  S
O475        C485   1.274       .  A
O476       Cd477   1.979       .  S
Cd477       O479   2.044       .  S
O478        C485   1.274       .  A
C480        O484   1.275       .  A
C480        C641   1.473       .  S
C481        C888   1.484       .  S
C483        C860   1.491       .  S
C485        C916   1.466       .  S
C486        O487   1.277       .  A
C486        C874   1.495       .  S
C488       C1418   1.531   1_455  S
C488        C491   1.538       .  S
C488        C891   1.535       .  S
C489       C1423   1.541       .  S
C489        C494   1.539       .  S
C489        C877   1.547       .  S
C490       C1416   1.532       .  S
C490        C498   1.378       .  A
C490        C493   1.385       .  A
C491        C502   1.376       .  A
C491        C958   1.399   1_465  A
C492        C506   1.381       .  A
C492        C495   1.416   1_455  A
C493        C496   1.382       .  A
C494        C955   1.402       .  A
C494        C500   1.366       .  A
C495       C1417   1.541       .  S
C495        C503   1.382   1_655  A
C496        N497   1.357       .  A
C496        H509   1.079       .  S
N497        C498   1.355       .  A
N497        C905   1.437       .  S
C498        H499   1.085       .  S
C500        N965   1.355       .  A
C500        H510   1.071       .  S
N501        C964   1.353   1_455  A
N501        C502   1.357   1_545  A
N501        C846   1.433       .  S
C502        H508   1.064       .  S
C503        N504   1.346       .  A
C503        H505   1.065   1_455  S
N504        C506   1.339       .  A
N504        C919   1.422       .  S
C506        H507   1.089       .  S
O511        C527   1.278       .  A
O511       Zn517   2.033   1_455  S
C512        O528   1.280       .  A
C512        O525   1.268       .  A
C512        C804   1.484       .  S
O513       Cd520   2.066       .  S
O514        C532   1.269       .  A
O515       Cd519   2.042       .  S
O516        C527   1.271       .  A
O516       Cd519   2.044       .  S
Zn517      O1456   2.049       .  S
Zn517       O530   2.053       .  S
Zn517       O522   1.938   1_655  S
O518        C993   1.268       .  A
O518       Cd523   2.032       .  S
Cd519       O522   1.987       .  S
Cd520       O524   2.059       .  S
Cd520      O1461   2.055   1_455  S
O521        C531   1.273       .  A
O522      Cd1451   1.986   1_455  S
Cd523       O525   2.028       .  S
Cd523      O1450   1.987       .  S
O524        C531   1.273       .  A
C526        O530   1.280   1_454  A
C526       C1500   1.469       .  S
C527        C790   1.482       .  S
O528      Zn1445   2.048       .  S
C529        O982   1.268   1_455  A
C529        C849   1.482       .  S
C531        C821   1.482       .  S
C532        O533   1.275       .  A
C532        C832   1.476       .  S
O533      Cd1448   2.055       .  S
C534        C536   1.526       .  S
C534        C538   1.532       .  S
C534        C537   1.556       .  S
C534        C807   1.530       .  S
C535        C539   1.528       .  S
C535        C541   1.542       .  S
C535        C540   1.545       .  S
C535        C818   1.534       .  S
C536        C544   1.377       .  A
C536        C539   1.386       .  A
C537        C548   1.380       .  A
C537        C540   1.399       .  A
C538        C552   1.380       .  A
C538        C541   1.405       .  A
C539        C542   1.372       .  A
C540        C546   1.382       .  A
C541        C549   1.382       .  A
C542        N543   1.354       .  A
C542        H555   1.080       .  S
N543        C544   1.353       .  A
N543        C835   1.428       .  S
C544        H545   1.084       .  S
C546        N547   1.360       .  A
C546        H556   1.074       .  S
N547        C548   1.359       .  A
N547        C863   1.447       .  S
C548        H554   1.081       .  S
C549        N550   1.346       .  A
C549        H551   1.084       .  S
N550        C552   1.350       .  A
N550        C793   1.429       .  S
C552        H553   1.083       .  S
O557        C573   1.275       .  A
O557      Zn1491   2.023       .  S
C558        O574   1.272       .  A
C558        O571   1.272       .  A
C558        C776   1.466       .  S
O559        C572   1.272       .  A
O559       Cd566   2.062       .  S
O560        C578   1.272       .  A
O560       Cd569   2.058       .  S
O561       C1503   1.281       .  A
O561       Cd565   2.104       .  S
O562        C573   1.277       .  A
Zn563      O1485   2.022       .  S
Zn563       O574   2.005       .  S
Zn563       O576   2.032       .  S
O564        C575   1.270       .  A
O564       Cd569   2.051       .  S
Cd565       O567   2.108       .  S
Cd565      O1496   2.002       .  S
Cd566      O1498   2.049       .  S
Cd566       O579   2.052       .  S
Cd566       O568   1.986       .  S
O567        C577   1.281       .  A
O568      Cd1493   2.001       .  S
O568       Cd569   1.989       .  S
O570        C577   1.271       .  A
O570      Cd1494   2.048   1_455  S
C572       C1454   1.469       .  S
C573        C748   1.489       .  S
C575       O1489   1.281       .  A
C575        C720   1.492       .  S
C577        C737   1.493       .  S
C578        O579   1.274       .  A
C578        C765   1.481       .  S
C580        C582   1.535       .  S
C580        C584   1.542       .  S
C580        C583   1.543       .  S
C580        C751   1.541       .  S
C581        C585   1.518       .  S
C581        C587   1.530       .  S
C581        C586   1.547       .  S
C581        C762   1.526       .  S
C582        C590   1.374       .  A
C582        C585   1.397       .  A
C583        C594   1.376       .  A
C583        C586   1.397       .  A
C584        C598   1.381       .  A
C584        C587   1.406       .  A
C585        C588   1.371       .  A
C586        C592   1.381       .  A
C587        C595   1.375       .  A
C588        N589   1.347       .  A
C588        H601   1.081       .  S
N589        C590   1.350       .  A
N589        C779   1.418       .  S
C590        H591   1.083       .  S
C592        N593   1.355       .  A
C592        H602   1.082       .  S
N593        C594   1.357       .  A
N593        C709   1.437       .  S
C594        H600   1.077       .  S
C595        N596   1.348       .  A
C595        H597   1.081       .  S
N596        C598   1.348       .  A
N596        C734   1.429       .  S
C598        H599   1.082       .  S
C603        C605   1.539       .  S
C603       C1535   1.535       .  S
C603        C606   1.547       .  S
C603        C678   1.539       .  S
C604       C1536   1.534   1_455  S
C604        C609   1.551       .  S
C604        C667   1.533       .  S
C606        C617   1.380       .  A
C606       C1073   1.400       .  A
C607       C1531   1.535       .  S
C607        C621   1.373   1_655  A
C607        C610   1.397   1_655  A
C608       C1532   1.534       .  S
C608        C611   1.381       .  A
C609       C1070   1.397   1_465  A
C609        C615   1.386       .  A
C610        C618   1.374       .  A
C611        N612   1.352       .  A
C611        H624   1.084       .  S
N612        C613   1.348       .  A
N612        C692   1.428       .  S
C615       N1080   1.357   1_465  A
C615        H625   1.080       .  S
N616       C1079   1.355       .  A
N616        C617   1.356       .  A
N616        C723   1.436       .  S
C617        H623   1.077       .  S
C618        N619   1.347       .  A
C618        H620   1.080       .  S
N619        C621   1.349       .  A
N619        C650   1.420       .  S
C621        H622   1.087       .  S
O626        C642   1.274       .  A
O626       Zn632   2.000       .  S
C627        O643   1.273       .  A
C627        O640   1.276       .  A
C627        C681   1.489       .  S
O628        C641   1.276       .  A
O628       Cd635   2.082       .  S
O629        C647   1.276       .  A
O629       Cd638   2.071       .  S
O630        C644   1.270       .  A
O630       Cd634   2.060       .  S
O631        C642   1.270       .  A
O631       Cd634   2.039       .  S
Zn632       O643   2.016       .  S
Zn632       O645   2.026       .  S
Zn632       O637   1.944       .  S
O633        C644   1.276       .  A
O633       Cd638   2.072       .  S
Cd634       O636   2.058       .  S
Cd634       O637   2.008       .  S
Cd635       O639   2.072       .  S
Cd635       O648   2.074       .  S
Cd635       O637   1.996       .  S
O636        C646   1.272       .  A
O637       Cd638   1.984       .  S
Cd638       O640   2.071       .  S
O639        C646   1.277       .  A
C641        O645   1.275       .  A
C642        C653   1.471       .  S
C644        C706   1.489       .  S
C646        C664   1.484       .  S
C647        O648   1.275       .  A
C647        C695   1.490       .  S
C649        C650   1.397       .  A
C649        C654   1.393       .  A
C649        H656   1.079       .  S
C650        C651   1.400       .  A
C651        C652   1.392       .  A
C651        N658   1.427       .  S
C652        C653   1.405       .  A
C652        H657   1.080       .  S
C653        C654   1.416       .  A
C654        N655   1.430       .  S
N655        O659   1.262       .  A
N655        O660   1.262       .  A
N658        O662   1.262       .  A
N658        O661   1.262       .  A
C663        C664   1.400       .  A
C663        C668   1.398       .  A
C663        H670   1.083       .  S
C664        C665   1.413       .  A
C665        C666   1.397       .  A
C665        N672   1.429       .  S
C666        C667   1.405       .  A
C666        H671   1.079       .  S
C667        C668   1.425       .  A
C668        N669   1.430       .  S
N669       O1601   1.262       .  A
N669       O1602   1.262       .  A
N672        O676   1.262       .  A
N672        O675   1.262       .  A
O673       N1597   1.262       .  A
O674       N1597   1.262       .  A
C677        C678   1.411       .  A
C677        C682   1.394       .  A
C677        H684   1.081       .  S
C678        C679   1.425       .  A
C679        C680   1.403       .  A
C679        N686   1.433       .  S
C680        C681   1.405       .  A
C680        H685   1.083       .  S
C681        C682   1.411       .  A
C682        N683   1.430       .  S
N683        O687   1.262       .  A
N683        O688   1.262       .  A
N686        O690   1.261       .  A
N686        O689   1.262       .  A
C691        C692   1.394       .  A
C691        C696   1.396       .  A
C691        H698   1.083       .  S
C692        C693   1.402       .  A
C693        C694   1.401       .  A
C693        N700   1.430       .  S
C694        C695   1.412       .  A
C694        H699   1.084       .  S
C695        C696   1.419       .  A
C696        N697   1.427       .  S
N697        O701   1.261       .  A
N697        O702   1.262       .  A
N700        O704   1.262       .  A
N700        O703   1.261       .  A
C705        C706   1.406       .  A
C705        C710   1.397       .  A
C705        H712   1.080       .  S
C706        C707   1.419       .  A
C707        C708   1.401       .  A
C707        N714   1.429       .  S
C708        C709   1.400       .  A
C708        H713   1.080       .  S
C709        C710   1.409       .  A
C710        N711   1.428       .  S
N711        O715   1.262       .  A
N711        O716   1.262       .  A
N714        O718   1.262       .  A
N714        O717   1.262       .  A
C719       C1648   1.405   1_455  A
C719        C724   1.401       .  A
C719        H726   1.080       .  S
C720       C1647   1.405       .  A
C721        C722   1.403       .  A
C721        N728   1.429       .  S
C722        H727   1.081       .  S
C723       C1652   1.406       .  A
C724       C1651   1.406   1_455  A
C724        N725   1.427       .  S
N725        O729   1.261       .  A
N725        O730   1.262       .  A
N728        O732   1.262       .  A
N728        O731   1.262       .  A
C733        C734   1.391       .  A
C733        C738   1.395       .  A
C733        H740   1.083       .  S
C734        C735   1.407       .  A
C735        C736   1.403       .  A
C735        N742   1.431       .  S
C736        C737   1.410       .  A
C736        H741   1.083       .  S
C737        C738   1.424       .  A
C738        N739   1.429       .  S
N739        O743   1.262       .  A
N739        O744   1.262       .  A
N742        O746   1.262       .  A
N742        O745   1.263       .  A
C747        C748   1.402       .  A
C747        C752   1.399       .  A
C747        H754   1.082       .  S
C748        C749   1.411       .  A
C749        C750   1.397       .  A
C749        N756   1.428       .  S
C750        C751   1.412       .  A
C750        H755   1.079       .  S
C751        C752   1.424       .  A
C752        N753   1.429       .  S
N753        O757   1.258       .  A
N753        O758   1.262       .  A
N756        O760   1.262       .  A
N756        O759   1.262       .  A
C761        C762   1.406       .  A
C761        C766   1.395       .  A
C761        H768   1.077       .  S
C762        C763   1.419       .  A
C763        C764   1.396       .  A
C763        N770   1.431       .  S
C764        C765   1.403       .  A
C764        H769   1.082       .  S
C765        C766   1.412       .  A
C766        N767   1.429       .  S
N767        O771   1.262       .  A
N767        O772   1.262       .  A
N770        O774   1.262       .  A
N770        O773   1.262       .  A
C775        C776   1.402       .  A
C775        C780   1.385       .  A
C775        H782   1.082       .  S
C776        C777   1.412       .  A
C777        C778   1.396       .  A
C777        N784   1.428       .  S
C778        C779   1.398       .  A
C778        H783   1.082       .  S
C779        C780   1.402       .  A
C780        N781   1.428       .  S
N781        O785   1.262       .  A
N781        O786   1.262       .  A
N784        O788   1.262       .  A
N784        O787   1.262       .  A
C789        C790   1.406       .  A
C789        C794   1.397       .  A
C789        H796   1.080       .  S
C790        C791   1.418       .  A
C791        C792   1.398       .  A
C791        N798   1.430       .  S
C792        C793   1.398       .  A
C792        H797   1.080       .  S
C793        C794   1.404       .  A
C794        N795   1.428       .  S
N795        O799   1.262       .  A
N795        O800   1.262       .  A
N798        O802   1.262       .  A
N798        O801   1.262       .  A
C803        C804   1.400       .  A
C803        C808   1.400       .  A
C803        H810   1.082       .  S
C804        C805   1.417       .  A
C805        C806   1.394       .  A
C805        N812   1.429       .  S
C806        C807   1.400       .  A
C806        H811   1.074       .  S
C807        C808   1.424       .  A
C808        N809   1.431       .  S
N809        O813   1.262       .  A
N809        O814   1.262       .  A
N812        O816   1.262       .  A
N812        O815   1.262       .  A
C817        C818   1.411       .  A
C817        C822   1.389       .  A
C817        H824   1.076       .  S
C818        C819   1.423       .  A
C819        C820   1.402       .  A
C819        N826   1.433       .  S
C820        C821   1.405       .  A
C820        H825   1.080       .  S
C821        C822   1.408       .  A
C822        N823   1.429       .  S
N823        O827   1.262       .  A
N823        O828   1.261       .  A
N826        O830   1.261       .  A
N826        O829   1.262       .  A
C831        C832   1.406       .  A
C831        C836   1.394       .  A
C831        H838   1.080       .  S
C832        C833   1.417       .  A
C833        C834   1.393       .  A
C833        N840   1.430       .  S
C834        C835   1.398       .  A
C834        H839   1.077       .  S
C835        C836   1.403       .  A
C836        N837   1.427       .  S
N837        O841   1.262       .  A
N837        O842   1.262       .  A
N840        O844   1.262       .  A
N840        O843   1.262       .  A
C845       C1774   1.399       .  A
C845        C850   1.392       .  A
C845        H852   1.078       .  S
C846       C1773   1.399   1_455  A
C847        C848   1.395       .  A
C847        N854   1.428       .  S
C848        H853   1.079       .  S
C849       C1778   1.417   1_455  A
C850       C1777   1.417       .  A
C850        N851   1.429       .  S
N851        O855   1.262       .  A
N851        O856   1.262   1_545  A
N854        O858   1.262       .  A
N854        O857   1.262       .  A
C859        C860   1.407       .  A
C859        C864   1.402       .  A
C859        H866   1.084       .  S
C860        C861   1.415       .  A
C861        C862   1.399       .  A
C861        N868   1.429       .  S
C862        C863   1.405       .  A
C862        H867   1.083       .  S
C863        C864   1.414       .  A
C864        N865   1.428       .  S
N865        O869   1.262       .  A
N865        O870   1.262       .  A
N868        O872   1.262       .  A
N868        O871   1.262       .  A
C873        C874   1.404       .  A
C873        C878   1.402       .  A
C873        H880   1.084       .  S
C874        C875   1.409       .  A
C875        C876   1.400       .  A
C875        N882   1.428       .  S
C876        C877   1.412       .  A
C876        H881   1.079       .  S
C877        C878   1.430       .  A
C878        N879   1.433       .  S
N879        O883   1.263       .  A
N879        O884   1.261       .  A
N882        O886   1.262       .  A
N882        O885   1.262       .  A
C887        C888   1.404       .  A
C887        C892   1.404       .  A
C887        H894   1.081       .  S
C888        C889   1.408       .  A
C889        C890   1.391       .  A
C889        N896   1.429       .  S
C890        C891   1.410       .  A
C890        H895   1.080       .  S
C891        C892   1.424       .  A
C892        N893   1.431       .  S
N893        O897   1.259       .  A
N893        O898   1.262       .  A
N896        O900   1.262       .  A
N896        O899   1.262       .  A
C901        C902   1.404       .  A
C901        C906   1.391       .  A
C901        H908   1.084       .  S
C902        C903   1.417       .  A
C903        C904   1.403       .  A
C903        N910   1.427       .  S
C904        C905   1.402       .  A
C904        H909   1.086       .  S
C905        C906   1.408       .  A
C906        N907   1.426       .  S
N907        O911   1.262       .  A
N907        O912   1.262       .  A
N910        O914   1.261       .  A
N910        O913   1.262       .  A
C915        C916   1.403       .  A
C915        C920   1.397       .  A
C915        H922   1.079       .  S
C916        C917   1.410       .  A
C917        C918   1.395       .  A
C917        N924   1.428       .  S
C918        C919   1.394       .  A
C918        H923   1.083       .  S
C919        C920   1.408       .  A
C920        N921   1.430       .  S
N921        O925   1.262       .  A
N921        O926   1.261       .  A
N924        O928   1.262       .  A
N924        O927   1.262       .  A
O929        C945   1.276       .  A
O929       Zn935   2.022       .  S
C930        O946   1.276       .  A
C930        O943   1.272       .  A
C930       C1366   1.477       .  S
O931        C944   1.274       .  A
O931       Cd938   2.077       .  S
O932        C950   1.276       .  A
O932       Cd941   2.055       .  S
O933        C947   1.279       .  A
O933       Cd937   2.110       .  S
O934        C945   1.278       .  A
O934       Cd937   2.073       .  S
Zn935       O946   2.034       .  S
Zn935       O948   2.047       .  S
Zn935       O940   1.956       .  S
O936        C947   1.275       .  A
O936       Cd941   2.091       .  S
Cd937       O939   2.099       .  S
Cd937       O940   2.002       .  S
Cd938       O942   2.057       .  S
Cd938       O951   2.071       .  S
Cd938       O940   2.009       .  S
O939        C949   1.281       .  A
O940       Cd941   1.991       .  S
Cd941       O943   2.049       .  S
O942        C949   1.273       .  A
C944        O948   1.277       .  A
C944       C1105   1.480       .  S
C945       C1352   1.489       .  S
C947       C1324   1.501       .  S
C949       C1380   1.482       .  S
C950        O951   1.275       .  A
C950       C1338   1.485       .  S
C952       C1420   1.537       .  S
C952        C955   1.536       .  S
C952       C1355   1.542       .  S
C953       C1421   1.539   1_545  S
C953        C958   1.540       .  S
C953       C1341   1.537       .  S
C954        C962   1.377       .  A
C954        C957   1.389       .  A
C955        C966   1.373       .  A
C956       C1416   1.541   1_545  S
C956        C970   1.385       .  A
C956        C959   1.411       .  A
C957       C1417   1.539       .  S
C957        C960   1.380       .  A
C958        C964   1.367       .  A
C959        C967   1.381       .  A
C960        N961   1.351       .  A
C960        H973   1.095       .  S
N961        C962   1.354       .  A
N961       C1369   1.427       .  S
C962        H963   1.071       .  S
C964        H974   1.089       .  S
N965        C966   1.352       .  A
N965       C1310   1.425       .  S
C966        H972   1.085       .  S
C967        N968   1.348       .  A
C967        H969   1.076       .  S
N968        C970   1.345       .  A
N968       C1383   1.431       .  S
C970        H971   1.091       .  S
O975        C991   1.278       .  A
O975       Zn981   2.027       .  S
C976        O992   1.280       .  A
C976        O989   1.268       .  A
C976       C1268   1.485       .  S
O977       C1454   1.272   1_556  A
O977       Cd984   2.049       .  S
O978        C996   1.269       .  A
O978      Cd1451   2.041       .  S
O979       C1457   1.274       .  A
O979       Cd983   2.067       .  S
O980        C991   1.271       .  A
O980       Cd983   2.046       .  S
Zn981       O994   2.056       .  S
Zn981       O986   1.936       .  S
O982       Cd987   2.034       .  S
Cd983      O1449   2.054   1_545  S
Cd983       O986   1.991       .  S
Cd984       O988   2.048       .  S
Cd984      O1450   1.979       .  S
O985        C995   1.274       .  A
O985      Cd1447   2.061       .  S
O986      Cd1448   1.987   1_545  S
Cd987      O1442   2.032   1_545  S
Cd987       O989   2.034       .  S
O988        C995   1.271       .  A
C990       O1441   1.274   1_544  A
C990        O994   1.279   1_554  A
C991       C1254   1.485       .  S
C993       O1443   1.271       .  A
C993       C1313   1.473       .  S
C995       C1285   1.481       .  S
C996        O997   1.273       .  A
C996       C1296   1.477       .  S
C998       C1000   1.525       .  S
C998       C1002   1.538       .  S
C998       C1001   1.559       .  S
C998       C1271   1.530       .  S
C999       C1003   1.534       .  S
C999       C1005   1.545       .  S
C999       C1004   1.544       .  S
C999       C1282   1.534       .  S
C1000      C1008   1.377       .  A
C1000      C1003   1.385       .  A
C1001      C1012   1.387       .  A
C1001      C1004   1.396       .  A
C1002      C1016   1.379       .  A
C1002      C1005   1.406       .  A
C1003      C1006   1.373       .  A
C1004      C1010   1.385       .  A
C1005      C1013   1.385       .  A
C1006      N1007   1.356       .  A
C1006      H1019   1.082       .  S
N1007      C1008   1.355       .  A
N1007      C1299   1.430       .  S
C1008      H1009   1.078       .  S
C1010      N1011   1.358       .  A
C1010      H1020   1.076       .  S
N1011      C1012   1.357       .  A
N1011      C1327   1.443       .  S
C1012      H1018   1.088       .  S
C1013      N1014   1.349       .  A
C1013      H1015   1.085       .  S
N1014      C1016   1.353       .  A
N1014      C1257   1.436       .  S
C1016      H1017   1.080       .  S
O1021      C1037   1.274       .  A
C1022      O1038   1.273       .  A
C1022      O1035   1.271       .  A
C1022      C1240   1.472       .  S
O1023      C1036   1.273   1_655  A
O1023     Cd1030   2.077       .  S
O1024      C1042   1.272       .  A
O1024     Cd1033   2.055       .  S
O1025     Cd1029   2.100       .  S
O1026      C1037   1.278       .  A
O1026     Cd1493   2.072       .  S
Zn1027     O1038   2.026   1_455  S
Zn1027     O1040   2.024       .  S
Zn1027     O1496   1.952       .  S
O1028      C1039   1.272   1_655  A
O1028     Cd1033   2.073       .  S
Cd1029     O1490   2.067   1_545  S
Cd1029     O1031   2.085       .  S
Cd1030     O1043   2.062       .  S
Cd1030     O1032   1.988   1_655  S
O1031      C1041   1.278       .  A
O1032     Zn1491   1.958   1_545  S
O1032     Cd1033   1.992   1_455  S
Cd1033     O1499   2.021   1_545  S
O1034      C1041   1.274       .  A
O1035     Cd1497   2.035       .  S
C1036      O1504   1.276   1_545  A
C1037      C1212   1.489       .  S
C1039      C1184   1.493   1_455  S
O1040      C1500   1.276       .  A
C1041      C1201   1.478       .  S
C1042      O1043   1.276       .  A
C1042      C1229   1.478       .  S
C1044      C1046   1.542       .  S
C1044      C1048   1.545       .  S
C1044      C1047   1.541       .  S
C1044      C1215   1.540       .  S
C1045      C1049   1.520       .  S
C1045      C1051   1.529       .  S
C1045      C1050   1.551       .  S
C1045      C1226   1.526       .  S
C1046      C1054   1.377       .  A
C1046      C1049   1.401       .  A
C1047      C1058   1.376       .  A
C1047      C1050   1.394       .  A
C1048      C1062   1.385       .  A
C1048      C1051   1.402       .  A
C1049      C1052   1.374       .  A
C1050      C1056   1.386       .  A
C1051      C1059   1.376       .  A
C1052      N1053   1.345       .  A
C1052      H1065   1.082       .  S
N1053      C1054   1.350       .  A
N1053      C1243   1.422       .  S
C1054      H1055   1.079       .  S
C1056      N1057   1.358       .  A
C1056      H1066   1.079       .  S
N1057      C1058   1.357       .  A
N1057      C1173   1.442       .  S
C1058      H1064   1.081       .  S
C1059      N1060   1.346       .  A
C1059      H1061   1.082       .  S
N1060      C1062   1.350       .  A
N1060      C1198   1.425       .  S
C1062      H1063   1.083       .  S
C1067      C1069   1.533       .  S
C1067      C1070   1.540       .  S
C1067      C1142   1.537       .  S
C1068      C1538   1.522       .  S
C1068      C1073   1.549       .  S
C1068      C1131   1.526       .  S
C1069      C1541   1.377   1_545  A
C1069      C1536   1.399   1_545  A
C1070      C1081   1.375       .  A
C1071      C1085   1.375       .  A
C1071      C1074   1.405       .  A
C1072      C1533   1.401       .  A
C1072      C1075   1.376       .  A
C1073      C1079   1.382       .  A
C1074      C1532   1.529   1_545  S
C1074      C1082   1.378       .  A
C1075      N1076   1.348       .  A
C1075      H1088   1.082       .  S
N1076      C1077   1.346       .  A
N1076      C1156   1.421       .  S
C1077      C1533   1.379       .  A
C1077      H1542   1.087       .  S
H1078      C1541   1.081   1_545  S
C1079      H1089   1.084       .  S
N1080      C1081   1.352       .  A
N1080      C1187   1.435       .  S
C1081      H1087   1.082       .  S
C1082      N1083   1.347       .  A
C1082      H1084   1.086       .  S
N1083      C1085   1.350       .  A
N1083      C1114   1.428       .  S
C1085      H1086   1.082       .  S
O1090      C1106   1.275       .  A
O1090     Zn1096   1.999       .  S
C1091      O1107   1.273       .  A
C1091      O1104   1.277       .  A
C1091      C1145   1.485       .  S
O1092      C1105   1.275       .  A
O1092     Cd1099   2.087       .  S
O1093      C1111   1.275       .  A
O1093     Cd1102   2.066       .  S
O1094      C1108   1.271       .  A
O1094     Cd1098   2.069       .  S
O1095      C1106   1.270       .  A
O1095     Cd1098   2.041       .  S
Zn1096     O1107   2.014       .  S
Zn1096     O1109   2.042       .  S
Zn1096     O1101   1.941       .  S
O1097      C1108   1.277       .  A
O1097     Cd1102   2.090       .  S
Cd1098     O1100   2.034       .  S
Cd1098     O1101   2.007       .  S
Cd1099     O1103   2.072       .  S
Cd1099     O1112   2.070       .  S
Cd1099     O1101   1.998       .  S
O1100      C1110   1.269       .  A
O1101     Cd1102   1.986       .  S
Cd1102     O1104   2.062       .  S
O1103      C1110   1.278       .  A
C1105      O1109   1.276       .  A
C1106      C1117   1.476       .  S
C1108      C1170   1.497       .  S
C1110      C1128   1.480       .  S
C1111      O1112   1.275       .  A
C1111      C1159   1.478       .  S
C1113      C1114   1.399       .  A
C1113      C1118   1.394       .  A
C1113      H1120   1.069       .  S
C1114      C1115   1.402       .  A
C1115      C1116   1.392       .  A
C1115      N1122   1.427       .  S
C1116      C1117   1.406       .  A
C1116      H1121   1.082       .  S
C1117      C1118   1.416       .  A
C1118      N1119   1.431       .  S
N1119      O1123   1.262       .  A
N1119      O1124   1.262       .  A
N1122      O1126   1.262       .  A
N1122      O1125   1.262       .  A
C1127      C1128   1.399       .  A
C1127      C1132   1.395       .  A
C1127      H1134   1.080       .  S
C1128      C1129   1.415       .  A
C1129      C1130   1.395       .  A
C1129      N1136   1.429       .  S
C1130      C1131   1.403       .  A
C1130      H1135   1.077       .  S
C1131      C1132   1.423       .  A
C1132      N1133   1.431       .  S
N1136      O1140   1.262       .  A
N1136      O1139   1.262       .  A
C1141      C1142   1.411       .  A
C1141      C1146   1.397       .  A
C1141      H1148   1.081       .  S
C1142      C1143   1.426       .  A
C1143      C1144   1.397       .  A
C1143      N1150   1.431       .  S
C1144      C1145   1.400       .  A
C1144      H1149   1.083       .  S
C1145      C1146   1.411       .  A
C1146      N1147   1.429       .  S
N1147      O1151   1.262       .  A
N1147      O1152   1.262       .  A
N1150      O1154   1.259       .  A
N1150      O1153   1.262       .  A
C1155      C1156   1.392       .  A
C1155      C1160   1.395       .  A
C1155      H1162   1.083       .  S
C1156      C1157   1.401       .  A
C1157      C1158   1.399       .  A
C1157      N1164   1.429       .  S
C1158      C1159   1.408       .  A
C1158      H1163   1.084       .  S
C1159      C1160   1.414       .  A
C1160      N1161   1.425       .  S
N1161      O1165   1.261       .  A
N1161      O1166   1.262       .  A
N1164      O1168   1.262       .  A
N1164      O1167   1.262       .  A
C1169      C1170   1.408       .  A
C1169      C1174   1.402       .  A
C1169      H1176   1.080       .  S
C1170      C1171   1.420       .  A
C1171      C1172   1.402       .  A
C1171      N1178   1.429       .  S
C1172      C1173   1.401       .  A
C1172      H1177   1.080       .  S
C1173      C1174   1.410       .  A
C1174      N1175   1.428       .  S
N1175      O1179   1.262       .  A
N1175      O1180   1.262       .  A
N1178      O1182   1.262       .  A
N1178      O1181   1.262       .  A
C1183      C1188   1.402       .  A
C1183      H1190   1.081       .  S
C1184      C1649   1.420   1_545  A
C1185      C1648   1.422       .  A
C1185      C1186   1.405       .  A
C1185      N1192   1.431       .  S
C1186      C1651   1.399       .  A
C1186      H1191   1.078       .  S
C1187      C1650   1.398   1_545  A
C1188      N1189   1.428       .  S
N1189      O1193   1.261       .  A
N1189      O1194   1.262       .  A
N1192      O1196   1.262       .  A
N1192      O1195   1.262       .  A
C1197      C1198   1.394       .  A
C1197      C1202   1.397       .  A
C1197      H1204   1.083       .  S
C1198      C1199   1.403       .  A
C1199      C1200   1.401       .  A
C1199      N1206   1.429       .  S
C1200      C1201   1.407       .  A
C1200      H1205   1.084       .  S
C1201      C1202   1.417       .  A
C1202      N1203   1.429       .  S
N1203      O1207   1.262       .  A
N1203      O1208   1.262       .  A
N1206      O1210   1.262       .  A
N1206      O1209   1.262       .  A
C1211      C1212   1.401       .  A
C1211      C1216   1.399       .  A
C1211      H1218   1.081       .  S
C1212      C1213   1.411       .  A
C1213      C1214   1.397       .  A
C1213      N1220   1.429       .  S
C1214      C1215   1.411       .  A
C1214      H1219   1.077       .  S
C1215      C1216   1.427       .  A
C1216      N1217   1.431       .  S
N1217      O1221   1.259       .  A
N1217      O1222   1.262       .  A
N1220      O1224   1.262       .  A
N1220      O1223   1.262       .  A
C1225      C1226   1.404       .  A
C1225      C1230   1.394       .  A
C1225      H1232   1.077       .  S
C1226      C1227   1.422       .  A
C1227      C1228   1.396       .  A
C1227      N1234   1.431       .  S
C1228      C1229   1.401       .  A
C1228      H1233   1.082       .  S
C1229      C1230   1.411       .  A
C1230      N1231   1.429       .  S
N1231      O1235   1.262       .  A
N1231      O1236   1.262       .  A
N1234      O1238   1.262       .  A
N1234      O1237   1.262       .  A
C1239      C1240   1.404       .  A
C1239      C1244   1.392       .  A
C1239      H1246   1.082       .  S
C1240      C1241   1.412       .  A
C1241      C1242   1.398       .  A
C1241      N1248   1.428       .  S
C1242      C1243   1.397       .  A
C1242      H1247   1.081       .  S
C1243      C1244   1.405       .  A
C1244      N1245   1.430       .  S
N1245      O1249   1.262       .  A
N1245      O1250   1.262       .  A
N1248      O1252   1.262       .  A
N1248      O1251   1.262       .  A
C1253      C1254   1.407       .  A
C1253      C1258   1.399       .  A
C1253      H1260   1.083       .  S
C1254      C1255   1.418       .  A
C1255      C1256   1.395       .  A
C1255      N1262   1.429       .  S
C1256      C1257   1.399       .  A
C1256      H1261   1.081       .  S
C1257      C1258   1.410       .  A
C1258      N1259   1.429       .  S
N1259      O1263   1.262       .  A
N1259      O1264   1.262   1_556  A
N1262      O1266   1.262       .  A
N1262      O1265   1.262       .  A
C1267      C1268   1.400       .  A
C1267      C1272   1.398       .  A
C1267      H1274   1.081       .  S
C1268      C1269   1.417       .  A
C1269      C1270   1.394       .  A
C1269      N1276   1.429       .  S
C1270      C1271   1.402       .  A
C1270      H1275   1.080       .  S
C1271      C1272   1.423       .  A
C1272      N1273   1.430       .  S
N1273      O1277   1.262       .  A
N1273      O1278   1.262       .  A
N1276      O1280   1.262       .  A
N1276      O1279   1.262       .  A
C1281      C1282   1.409       .  A
C1281      C1286   1.391       .  A
C1281      H1288   1.075       .  S
C1282      C1283   1.425       .  A
C1283      C1284   1.402       .  A
C1283      N1290   1.432       .  S
C1284      C1285   1.403       .  A
C1284      H1289   1.080       .  S
C1285      C1286   1.409       .  A
C1286      N1287   1.429       .  S
N1287      O1291   1.262       .  A
N1287      O1292   1.262       .  A
N1290      O1294   1.260       .  A
N1290      O1293   1.262       .  A
C1295      C1296   1.406       .  A
C1295      C1300   1.394       .  A
C1295      H1302   1.082       .  S
C1296      C1297   1.415       .  A
C1297      C1298   1.392       .  A
C1297      N1304   1.430       .  S
C1298      C1299   1.399       .  A
C1298      H1303   1.075       .  S
C1299      C1300   1.405       .  A
C1300      N1301   1.427       .  S
N1301      O1305   1.262       .  A
N1301      O1306   1.262       .  A
N1304      O1308   1.262       .  A
N1304      O1307   1.262       .  A
C1309      C1314   1.389       .  A
C1309      H1316   1.080       .  S
C1310      C1775   1.404       .  A
C1311      C1774   1.407       .  A
C1311      C1312   1.398       .  A
C1311      N1318   1.428       .  S
C1312      C1777   1.407       .  A
C1312      H1317   1.080       .  S
C1313      C1776   1.408       .  A
C1314      N1315   1.429       .  S
N1315      O1319   1.262       .  A
N1315      O1320   1.262       .  A
N1318      O1322   1.262   1_545  A
N1318      O1321   1.262       .  A
C1323      C1324   1.409       .  A
C1323      C1328   1.408       .  A
C1323      H1330   1.080       .  S
C1324      C1325   1.420       .  A
C1325      C1326   1.406       .  A
C1325      N1332   1.429       .  S
C1326      C1327   1.400       .  A
C1326      H1331   1.081       .  S
C1327      C1328   1.408       .  A
C1328      N1329   1.427       .  S
N1329      O1333   1.262       .  A
N1329      O1334   1.262       .  A
N1332      O1336   1.262       .  A
N1332      O1335   1.262       .  A
C1337      C1338   1.401       .  A
C1337      C1342   1.396       .  A
C1337      H1344   1.085       .  S
C1338      C1339   1.411       .  A
C1339      C1340   1.397       .  A
C1339      N1346   1.429       .  S
C1340      C1341   1.410       .  A
C1340      H1345   1.084       .  S
C1341      C1342   1.427       .  A
C1342      N1343   1.432       .  S
N1343      O1347   1.262       .  A
N1343      O1348   1.260       .  A
N1346      O1350   1.262       .  A
N1346      O1349   1.262       .  A
C1351      C1352   1.405       .  A
C1351      C1356   1.403       .  A
C1351      H1358   1.085       .  S
C1352      C1353   1.410       .  A
C1353      C1354   1.393       .  A
C1353      N1360   1.429       .  S
C1354      C1355   1.411       .  A
C1354      H1359   1.082       .  S
C1355      C1356   1.424       .  A
C1356      N1357   1.431       .  S
N1357      O1361   1.260       .  A
N1357      O1362   1.261       .  A
N1360      O1364   1.262       .  A
N1360      O1363   1.262       .  A
C1365      C1366   1.405       .  A
C1365      C1370   1.397       .  A
C1365      H1372   1.074       .  S
C1366      C1367   1.411       .  A
C1367      C1368   1.400       .  A
C1367      N1374   1.425       .  S
C1368      C1369   1.397       .  A
C1368      H1373   1.081       .  S
C1369      C1370   1.404       .  A
C1370      N1371   1.428       .  S
N1371      O1375   1.262       .  A
N1371      O1376   1.261       .  A
N1374      O1378   1.261       .  A
N1374      O1377   1.262       .  A
C1379      C1380   1.404       .  A
C1379      C1384   1.401       .  A
C1379      H1386   1.077       .  S
C1380      C1381   1.418       .  A
C1381      C1382   1.401       .  A
C1381      N1388   1.429       .  S
C1382      C1383   1.396       .  A
C1382      H1387   1.080       .  S
C1383      C1384   1.408       .  A
C1384      N1385   1.429       .  S
N1385      O1389   1.262       .  A
N1385      O1390   1.261       .  A
N1388      O1392   1.262       .  A
N1388      O1391   1.262       .  A
O1393      C1409   1.273       .  A
O1393     Zn1399   2.011       .  S
C1394      O1410   1.274       .  A
C1394      O1407   1.275       .  A
C1394      C1830   1.486       .  S
O1395      C1408   1.277       .  A
O1395     Cd1402   2.078       .  S
O1396      C1414   1.274       .  A
O1396     Cd1405   2.055       .  S
O1397      C1411   1.275       .  A
O1397     Cd1401   2.071       .  S
O1398      C1409   1.275       .  A
O1398     Cd1401   2.068       .  S
Zn1399     O1410   2.032       .  S
Zn1399     O1412   2.023       .  S
Zn1399     O1404   1.954       .  S
O1400      C1411   1.272       .  A
O1400     Cd1405   2.070       .  S
Cd1401     O1403   2.056       .  S
Cd1401     O1404   1.992       .  S
Cd1402     O1406   2.061       .  S
Cd1402     O1415   2.096       .  S
Cd1402     O1404   2.005       .  S
O1403      C1413   1.274       .  A
O1404     Cd1405   1.979       .  S
Cd1405     O1407   2.043       .  S
O1406      C1413   1.274       .  A
C1408      O1412   1.275       .  A
C1408      C1569   1.473       .  S
C1409      C1816   1.484       .  S
C1411      C1788   1.491       .  S
C1413      C1844   1.466       .  S
C1414      O1415   1.277       .  A
C1414      C1802   1.495       .  S
C1416      C1419   1.538       .  S
C1416      C1819   1.535       .  S
C1417      C1422   1.539       .  S
C1417      C1805   1.547       .  S
C1418      C1426   1.378       .  A
C1418      C1421   1.385       .  A
C1419      C1430   1.376       .  A
C1420      C1434   1.381       .  A
C1420      C1423   1.416       .  A
C1421      C1424   1.383       .  A
C1422      C1428   1.366       .  A
C1423      C1431   1.382       .  A
C1424      N1425   1.357       .  A
C1424      H1437   1.079       .  S
N1425      C1426   1.355       .  A
N1425      C1833   1.436       .  S
C1426      H1427   1.086       .  S
C1428      H1438   1.073       .  S
N1429      C1430   1.357   1_545  A
N1429      C1774   1.432       .  S
C1430      H1436   1.064       .  S
C1431      N1432   1.347       .  A
C1431      H1433   1.066       .  S
N1432      C1434   1.339       .  A
N1432      C1847   1.422       .  S
C1434      H1435   1.090       .  S
O1439      C1455   1.278       .  A
O1439     Zn1445   2.034       .  S
C1440      O1456   1.280       .  A
C1440      O1453   1.268       .  A
C1440      C1732   1.484       .  S
O1441     Cd1448   2.066       .  S
O1442      C1460   1.269       .  A
O1443     Cd1447   2.044       .  S
O1444      C1455   1.271       .  A
O1444     Cd1447   2.046       .  S
Zn1445     O1458   2.053       .  S
Zn1445     O1450   1.938       .  S
O1446     Cd1451   2.032       .  S
Cd1447     O1450   1.988       .  S
Cd1448     O1452   2.059       .  S
O1449      C1459   1.273       .  A
Cd1451     O1453   2.027       .  S
O1452      C1459   1.273       .  A
C1454      O1458   1.280   1_554  A
C1455      C1718   1.482       .  S
C1457      C1777   1.481       .  S
C1459      C1749   1.482       .  S
C1460      O1461   1.275       .  A
C1460      C1760   1.476       .  S
C1462      C1464   1.526       .  S
C1462      C1466   1.532       .  S
C1462      C1465   1.556       .  S
C1462      C1735   1.529       .  S
C1463      C1467   1.528       .  S
C1463      C1469   1.542       .  S
C1463      C1468   1.545       .  S
C1463      C1746   1.534       .  S
C1464      C1472   1.377       .  A
C1464      C1467   1.386       .  A
C1465      C1476   1.380       .  A
C1465      C1468   1.399       .  A
C1466      C1480   1.380       .  A
C1466      C1469   1.405       .  A
C1467      C1470   1.372       .  A
C1468      C1474   1.382       .  A
C1469      C1477   1.382       .  A
C1470      N1471   1.354       .  A
C1470      H1483   1.079       .  S
N1471      C1472   1.353       .  A
N1471      C1763   1.428       .  S
C1472      H1473   1.085       .  S
C1474      N1475   1.360       .  A
C1474      H1484   1.073       .  S
N1475      C1476   1.358       .  A
N1475      C1791   1.446       .  S
C1476      H1482   1.082       .  S
C1477      N1478   1.346       .  A
C1477      H1479   1.084       .  S
N1478      C1480   1.350       .  A
N1478      C1721   1.429       .  S
C1480      H1481   1.083       .  S
O1485      C1501   1.275       .  A
C1486      O1502   1.272       .  A
C1486      O1499   1.272       .  A
C1486      C1704   1.466       .  S
O1487      C1500   1.272   1_655  A
O1487     Cd1494   2.062       .  S
O1488      C1506   1.272       .  A
O1488     Cd1497   2.057       .  S
O1489     Cd1493   2.105       .  S
O1490      C1501   1.277       .  A
Zn1491     O1502   2.006   1_455  S
Zn1491     O1504   2.033       .  S
O1492      C1503   1.270   1_655  A
O1492     Cd1497   2.051       .  S
Cd1493     O1495   2.108       .  S
Cd1494     O1507   2.053       .  S
Cd1494     O1496   1.986   1_655  S
O1495      C1505   1.281       .  A
O1496     Cd1497   1.988   1_455  S
O1498      C1505   1.271       .  A
C1501      C1676   1.489       .  S
C1503      C1648   1.491   1_455  S
C1505      C1665   1.493       .  S
C1506      O1507   1.274       .  A
C1506      C1693   1.481       .  S
C1508      C1510   1.535       .  S
C1508      C1512   1.542       .  S
C1508      C1511   1.543       .  S
C1508      C1679   1.541       .  S
C1509      C1513   1.518       .  S
C1509      C1515   1.530       .  S
C1509      C1514   1.547       .  S
C1509      C1690   1.526       .  S
C1510      C1518   1.373       .  A
C1510      C1513   1.397       .  A
C1511      C1522   1.377       .  A
C1511      C1514   1.397       .  A
C1512      C1526   1.381       .  A
C1512      C1515   1.406       .  A
C1513      C1516   1.371       .  A
C1514      C1520   1.381       .  A
C1515      C1523   1.376       .  A
C1516      N1517   1.347       .  A
C1516      H1529   1.082       .  S
N1517      C1518   1.350       .  A
N1517      C1707   1.418       .  S
C1518      H1519   1.083       .  S
C1520      N1521   1.355       .  A
C1520      H1530   1.082       .  S
N1521      C1522   1.357       .  A
N1521      C1637   1.437       .  S
C1522      H1528   1.076       .  S
C1523      N1524   1.348       .  A
C1523      H1525   1.081       .  S
N1524      C1526   1.348       .  A
N1524      C1662   1.429       .  S
C1526      H1527   1.083       .  S
C1531      C1533   1.539       .  S
C1531      C1534   1.546       .  S
C1531      C1606   1.539       .  S
C1532      C1537   1.551       .  S
C1532      C1595   1.532       .  S
C1534      C1545   1.380       .  A
C1535      C1549   1.373       .  A
C1535      C1538   1.398       .  A
C1536      C1539   1.381       .  A
C1537      C1543   1.386       .  A
C1538      C1546   1.374       .  A
C1539      N1540   1.352       .  A
C1539      H1552   1.084       .  S
N1540      C1541   1.348       .  A
N1540      C1620   1.428       .  S
C1543      H1553   1.080       .  S
N1544      C1545   1.356       .  A
N1544      C1651   1.436       .  S
C1545      H1551   1.077       .  S
C1546      N1547   1.347       .  A
C1546      H1548   1.079       .  S
N1547      C1549   1.349       .  A
N1547      C1578   1.420       .  S
C1549      H1550   1.088       .  S
O1554      C1570   1.274       .  A
O1554     Zn1560   2.001       .  S
C1555      O1571   1.273       .  A
C1555      O1568   1.276       .  A
C1555      C1609   1.489       .  S
O1556      C1569   1.276       .  A
O1556     Cd1563   2.082       .  S
O1557      C1575   1.277       .  A
O1557     Cd1566   2.073       .  S
O1558      C1572   1.270       .  A
O1558     Cd1562   2.060       .  S
O1559      C1570   1.270       .  A
O1559     Cd1562   2.040       .  S
Zn1560     O1571   2.016       .  S
Zn1560     O1573   2.027       .  S
Zn1560     O1565   1.944       .  S
O1561      C1572   1.276       .  A
O1561     Cd1566   2.073       .  S
Cd1562     O1564   2.057       .  S
Cd1562     O1565   2.007       .  S
Cd1563     O1567   2.071       .  S
Cd1563     O1576   2.074       .  S
Cd1563     O1565   1.997       .  S
O1564      C1574   1.272       .  A
O1565     Cd1566   1.985       .  S
Cd1566     O1568   2.072       .  S
O1567      C1574   1.277       .  A
C1569      O1573   1.275       .  A
C1570      C1581   1.471       .  S
C1572      C1634   1.489       .  S
C1574      C1592   1.484       .  S
C1575      O1576   1.275       .  A
C1575      C1623   1.490       .  S
C1577      C1578   1.397       .  A
C1577      C1582   1.394       .  A
C1577      H1584   1.079       .  S
C1578      C1579   1.400       .  A
C1579      C1580   1.392       .  A
C1579      N1586   1.427       .  S
C1580      C1581   1.405       .  A
C1580      H1585   1.080       .  S
C1581      C1582   1.416       .  A
C1582      N1583   1.430       .  S
N1583      O1587   1.262       .  A
N1583      O1588   1.262       .  A
N1586      O1590   1.262       .  A
N1586      O1589   1.262       .  A
C1591      C1592   1.401       .  A
C1591      C1596   1.398       .  A
C1591      H1598   1.083       .  S
C1592      C1593   1.413       .  A
C1593      C1594   1.397       .  A
C1593      N1600   1.429       .  S
C1594      C1595   1.405       .  A
C1594      H1599   1.079       .  S
C1595      C1596   1.425       .  A
C1596      N1597   1.430       .  S
N1600      O1604   1.262       .  A
N1600      O1603   1.262       .  A
C1605      C1606   1.411       .  A
C1605      C1610   1.394       .  A
C1605      H1612   1.080       .  S
C1606      C1607   1.425       .  A
C1607      C1608   1.403       .  A
C1607      N1614   1.433       .  S
C1608      C1609   1.405       .  A
C1608      H1613   1.083       .  S
C1609      C1610   1.411       .  A
C1610      N1611   1.430       .  S
N1611      O1615   1.262       .  A
N1611      O1616   1.262       .  A
N1614      O1618   1.261       .  A
N1614      O1617   1.262       .  A
C1619      C1620   1.394       .  A
C1619      C1624   1.396       .  A
C1619      H1626   1.083       .  S
C1620      C1621   1.402       .  A
C1621      C1622   1.401       .  A
C1621      N1628   1.430       .  S
C1622      C1623   1.412       .  A
C1622      H1627   1.084       .  S
C1623      C1624   1.419       .  A
C1624      N1625   1.427       .  S
N1625      O1629   1.261       .  A
N1625      O1630   1.262       .  A
N1628      O1632   1.262       .  A
N1628      O1631   1.261       .  A
C1633      C1634   1.406       .  A
C1633      C1638   1.397       .  A
C1633      H1640   1.080       .  S
C1634      C1635   1.419       .  A
C1635      C1636   1.401       .  A
C1635      N1642   1.429       .  S
C1636      C1637   1.400       .  A
C1636      H1641   1.080       .  S
C1637      C1638   1.409       .  A
C1638      N1639   1.428       .  S
N1639      O1643   1.262       .  A
N1639      O1644   1.262       .  A
N1642      O1646   1.262       .  A
N1642      O1645   1.262       .  A
C1647      C1652   1.401       .  A
C1647      H1654   1.080       .  S
C1649      C1650   1.403       .  A
C1649      N1656   1.429       .  S
C1650      H1655   1.081       .  S
C1652      N1653   1.427       .  S
N1653      O1657   1.261       .  A
N1653      O1658   1.262       .  A
N1656      O1660   1.262       .  A
N1656      O1659   1.262       .  A
C1661      C1662   1.391       .  A
C1661      C1666   1.395       .  A
C1661      H1668   1.083       .  S
C1662      C1663   1.407       .  A
C1663      C1664   1.403       .  A
C1663      N1670   1.431       .  S
C1664      C1665   1.410       .  A
C1664      H1669   1.083       .  S
C1665      C1666   1.424       .  A
C1666      N1667   1.429       .  S
N1667      O1671   1.262       .  A
N1667      O1672   1.262       .  A
N1670      O1674   1.262       .  A
N1670      O1673   1.263       .  A
C1675      C1676   1.402       .  A
C1675      C1680   1.400       .  A
C1675      H1682   1.082       .  S
C1676      C1677   1.411       .  A
C1677      C1678   1.397       .  A
C1677      N1684   1.428       .  S
C1678      C1679   1.412       .  A
C1678      H1683   1.079       .  S
C1679      C1680   1.424       .  A
C1680      N1681   1.430       .  S
N1681      O1685   1.258       .  A
N1681      O1686   1.262       .  A
N1684      O1688   1.262       .  A
N1684      O1687   1.262       .  A
C1689      C1690   1.406       .  A
C1689      C1694   1.395       .  A
C1689      H1696   1.077       .  S
C1690      C1691   1.420       .  A
C1691      C1692   1.396       .  A
C1691      N1698   1.431       .  S
C1692      C1693   1.403       .  A
C1692      H1697   1.083       .  S
C1693      C1694   1.412       .  A
C1694      N1695   1.429       .  S
N1695      O1699   1.262       .  A
N1695      O1700   1.262       .  A
N1698      O1702   1.262       .  A
N1698      O1701   1.262       .  A
C1703      C1704   1.402       .  A
C1703      C1708   1.386       .  A
C1703      H1710   1.082       .  S
C1704      C1705   1.412       .  A
C1705      C1706   1.396       .  A
C1705      N1712   1.428       .  S
C1706      C1707   1.398       .  A
C1706      H1711   1.082       .  S
C1707      C1708   1.402       .  A
C1708      N1709   1.428       .  S
N1709      O1713   1.262       .  A
N1709      O1714   1.262       .  A
N1712      O1716   1.262       .  A
N1712      O1715   1.262       .  A
C1717      C1718   1.406       .  A
C1717      C1722   1.398       .  A
C1717      H1724   1.080       .  S
C1718      C1719   1.418       .  A
C1719      C1720   1.398       .  A
C1719      N1726   1.430       .  S
C1720      C1721   1.398       .  A
C1720      H1725   1.080       .  S
C1721      C1722   1.404       .  A
C1722      N1723   1.428       .  S
N1723      O1727   1.262       .  A
N1723      O1728   1.262       .  A
N1726      O1730   1.262       .  A
N1726      O1729   1.262       .  A
C1731      C1732   1.401       .  A
C1731      C1736   1.400       .  A
C1731      H1738   1.083       .  S
C1732      C1733   1.417       .  A
C1733      C1734   1.393       .  A
C1733      N1740   1.429       .  S
C1734      C1735   1.400       .  A
C1734      H1739   1.078       .  S
C1735      C1736   1.423       .  A
C1736      N1737   1.431       .  S
N1737      O1741   1.262       .  A
N1737      O1742   1.262       .  A
N1740      O1744   1.262       .  A
N1740      O1743   1.262       .  A
C1745      C1746   1.411       .  A
C1745      C1750   1.389       .  A
C1745      H1752   1.076       .  S
C1746      C1747   1.423       .  A
C1747      C1748   1.402       .  A
C1747      N1754   1.432       .  S
C1748      C1749   1.405       .  A
C1748      H1753   1.080       .  S
C1749      C1750   1.407       .  A
C1750      N1751   1.429       .  S
N1751      O1755   1.262       .  A
N1751      O1756   1.261       .  A
N1754      O1758   1.261       .  A
N1754      O1757   1.262       .  A
C1759      C1760   1.406       .  A
C1759      C1764   1.393       .  A
C1759      H1766   1.080       .  S
C1760      C1761   1.417       .  A
C1761      C1762   1.393       .  A
C1761      N1768   1.430       .  S
C1762      C1763   1.399       .  A
C1762      H1767   1.077       .  S
C1763      C1764   1.404       .  A
C1764      N1765   1.427       .  S
N1765      O1769   1.262       .  A
N1765      O1770   1.262       .  A
N1768      O1772   1.262       .  A
N1768      O1771   1.262       .  A
C1773      C1778   1.392       .  A
C1773      H1780   1.078       .  S
C1775      C1776   1.396       .  A
C1775      N1782   1.428       .  S
C1776      H1781   1.079       .  S
C1778      N1779   1.429       .  S
N1779      O1783   1.262       .  A
N1779      O1784   1.262   1_545  A
N1782      O1786   1.262       .  A
N1782      O1785   1.262       .  A
C1787      C1788   1.407       .  A
C1787      C1792   1.401       .  A
C1787      H1794   1.084       .  S
C1788      C1789   1.416       .  A
C1789      C1790   1.399       .  A
C1789      N1796   1.429       .  S
C1790      C1791   1.405       .  A
C1790      H1795   1.083       .  S
C1791      C1792   1.413       .  A
C1792      N1793   1.428       .  S
N1793      O1797   1.262       .  A
N1793      O1798   1.262       .  A
N1796      O1800   1.262       .  A
N1796      O1799   1.262       .  A
C1801      C1802   1.405       .  A
C1801      C1806   1.402       .  A
C1801      H1808   1.084       .  S
C1802      C1803   1.409       .  A
C1803      C1804   1.399       .  A
C1803      N1810   1.428       .  S
C1804      C1805   1.412       .  A
C1804      H1809   1.078       .  S
C1805      C1806   1.430       .  A
C1806      N1807   1.433       .  S
N1807      O1811   1.263       .  A
N1807      O1812   1.261       .  A
N1810      O1814   1.262       .  A
N1810      O1813   1.262       .  A
C1815      C1816   1.404       .  A
C1815      C1820   1.404       .  A
C1815      H1822   1.081       .  S
C1816      C1817   1.409       .  A
C1817      C1818   1.392       .  A
C1817      N1824   1.429       .  S
C1818      C1819   1.410       .  A
C1818      H1823   1.080       .  S
C1819      C1820   1.424       .  A
C1820      N1821   1.431       .  S
N1821      O1825   1.259       .  A
N1821      O1826   1.262       .  A
N1824      O1828   1.262       .  A
N1824      O1827   1.262       .  A
C1829      C1830   1.404       .  A
C1829      C1834   1.390       .  A
C1829      H1836   1.084       .  S
C1830      C1831   1.416       .  A
C1831      C1832   1.403       .  A
C1831      N1838   1.427       .  S
C1832      C1833   1.402       .  A
C1832      H1837   1.085       .  S
C1833      C1834   1.408       .  A
C1834      N1835   1.426       .  S
N1835      O1839   1.262       .  A
N1835      O1840   1.262       .  A
N1838      O1842   1.261       .  A
N1838      O1841   1.262       .  A
C1843      C1844   1.403       .  A
C1843      C1848   1.396       .  A
C1843      H1850   1.080       .  S
C1844      C1845   1.410       .  A
C1845      C1846   1.394       .  A
C1845      N1852   1.428       .  S
C1846      C1847   1.394       .  A
C1846      H1851   1.084       .  S
C1847      C1848   1.408       .  A
C1848      N1849   1.430       .  S
N1849      O1853   1.262       .  A
N1849      O1854   1.261       .  A
N1852      O1856   1.262       .  A
N1852      O1855   1.262       .  A
