geometry optimzed in LAMMPS
_audit_creation_date              2020-11-30 
_audit_creation_method            'lammps2cif' 
_symmetry_space_group_name_H-M    'P1' 
_symmetry_Int_Tables_number       1 
_symmetry_cell_setting            triclinic 
loop_ 
_symmetry_equiv_pos_as_xyz 
  x,y,z 
_cell_length_a                    31.69754647 
_cell_length_b                    31.71587640639126 
_cell_length_c                    37.958046448393816 
_cell_angle_alpha                 89.2865886670571 
_cell_angle_beta                  90.57733293320474 
_cell_angle_gamma                 90.08471369570235 
loop_ 
_atom_site_label 
_atom_site_type_symbol 
_atom_site_fract_x 
_atom_site_fract_y 
_atom_site_fract_z 
_atom_site_charge 
C1          C  0.11137926  0.91806692  0.51830521    -0.02000
C2          C  0.94146446  0.82425368  0.51858795    -0.02000
C3          C  0.85291127  0.99725584  0.49650917    -0.02000
C4          C  0.02492580  0.09156646  0.49818059    -0.02000
C5          C  0.95165369  0.11515785  0.01209983    -0.02000
C6          C  0.84377016  0.95244113  0.99766498    -0.02000
C7          C  0.00175307  0.83950451  0.99986245    -0.02000
C8          C  0.10588480  0.00269827  0.01151896    -0.02000
C9          C  0.50170742  0.60796436  0.99505835    -0.02000
C10         C  0.34042277  0.50151054  0.00467308    -0.02000
C11         C  0.59975138  0.43979145  0.99212827    -0.02000
C12         C  0.43841112  0.33386229  0.99917718    -0.02000
O13         O  0.61806648  0.15367420  0.72496539    -0.57300
C14         C  0.50194998  0.21608211  0.73236683     0.75300
O15         O  0.64624081  0.26271392  0.70690319    -0.58500
C16         C  0.63859416  0.14365199  0.69794226     0.75300
C17         C  0.56330607  0.25664845  0.63095767     0.77700
Cd18       Cd  0.58374023  0.21714245  0.69814022     1.37500
O19         O  0.51655818  0.18222357  0.71986195    -0.57300
O20         O  0.55085556  0.21959521  0.63835006    -0.56100
C21         C  0.63805616  0.27109157  0.73858361     0.77700
O22         O  0.58591277  0.27459097  0.65392928    -0.58500
O23         O  0.52442298  0.24866490  0.72849547    -0.56900
O24         O  0.63036202  0.16435260  0.67003595    -0.56900
O25         O  0.60527406  0.25449769  0.75140568    -0.56100
O26         O  0.71034175  0.99809858  0.73089977    -0.57300
C27         C  0.67288545  0.11233068  0.69967587     0.75300
O28         O  0.79747378  0.11953831  0.71510175    -0.58500
C29         C  0.74316023  0.97897561  0.74164693     0.75300
C30         C  0.78390381  0.04151972  0.63708469     0.77700
Cd31       Cd  0.74868975  0.06033405  0.70588272     1.37500
O32         O  0.68243410  0.09297686  0.72793222    -0.57300
O33         O  0.80504332  0.06140947  0.65994976    -0.56100
C34         C  0.80194574  0.11436802  0.74799080     0.77700
O35         O  0.74718146  0.03010976  0.64611429    -0.58500
O36         O  0.69650094  0.10575406  0.67371174    -0.56900
O37         O  0.77806120  0.99623135  0.73450295    -0.56900
O38         O  0.78176263  0.08421823  0.76187185    -0.56100
O39         O  0.85676479  0.27129439  0.79198026    -0.57300
C40         C  0.95812590  0.20421081  0.76729513     0.75300
O41         O  0.90336593  0.15910982  0.85934453    -0.58500
C42         C  0.82305506  0.26675341  0.80924274     0.75300
C43         C  0.82911244  0.14232747  0.76865500     0.77700
Cd44       Cd  0.88188653  0.20004667  0.80717958     1.37500
O45         O  0.93648132  0.23697936  0.77265713    -0.57300
O46         O  0.84727408  0.17337997  0.75423457    -0.56100
C47         C  0.91016853  0.19048958  0.87894241     0.77700
O48         O  0.83553313  0.13695129  0.80140741    -0.58500
O49         O  0.94535439  0.17021283  0.78130953    -0.56900
O50         O  0.81800787  0.23250285  0.82609733    -0.56900
O51         O  0.90351694  0.22658616  0.86563249    -0.56100
O52         O  0.79099371  0.33078287  0.78920465    -0.57300
C53         C  0.71582247  0.43181086  0.76704814     0.75300
O54         O  0.65394201  0.31029164  0.78990898    -0.58500
C55         C  0.78970411  0.29809146  0.80860949     0.75300
C56         C  0.68992900  0.36604814  0.87415819     0.77700
Cd57       Cd  0.71757381  0.35103271  0.80291984     1.37500
O58         O  0.74969295  0.41750478  0.78049592    -0.57300
O59         O  0.72130099  0.38556445  0.86143354    -0.56100
C60         C  0.66501945  0.29862342  0.75967235     0.77700
O61         O  0.67278223  0.33921718  0.85433628    -0.58500
O62         O  0.68313731  0.40934837  0.77066245    -0.56900
O63         O  0.75683852  0.29214229  0.82637555    -0.56900
O64         O  0.70032485  0.31173442  0.74877254    -0.56100
O65         O  0.60358960  0.77696354  0.77975262    -0.57300
C66         C  0.49584106  0.70723959  0.76007996     0.75300
O67         O  0.61104154  0.63922161  0.79341771    -0.58500
C68         C  0.63371470  0.77459833  0.80183759     0.75300
C69         C  0.53973374  0.69839966  0.86490774     0.77700
Cd70       Cd  0.57425788  0.70762343  0.79641428     1.37500
O71         O  0.51708152  0.74092218  0.76248507    -0.57300
O72         O  0.53224625  0.73161262  0.84723030    -0.56100
C73         C  0.62292022  0.64375767  0.76185650     0.77700
O74         O  0.56488470  0.67197596  0.85186687    -0.58500
O75         O  0.51192277  0.67391608  0.77287886    -0.56900
O76         O  0.63529516  0.74219152  0.82152946    -0.56900
O77         O  0.61177281  0.67733001  0.74600400    -0.56100
O78         O  0.70659628  0.92312698  0.77174224    -0.57300
C79         C  0.66688866  0.80638154  0.80364335     0.75300
O80         O  0.80523694  0.82051793  0.79599556    -0.58500
C81         C  0.74122158  0.93918028  0.76196544     0.75300
C82         C  0.75953627  0.88547009  0.87406221     0.77700
Cd83       Cd  0.73884580  0.86100797  0.80244095     1.37500
O84         O  0.66736794  0.83839478  0.78346183    -0.57300
O85         O  0.72952326  0.90306003  0.85724845    -0.56100
C86         C  0.79612029  0.80613258  0.76598842     0.77700
O87         O  0.77710700  0.85501175  0.85892605    -0.58500
O88         O  0.69772233  0.80179186  0.82458257    -0.56900
O89         O  0.77439698  0.91958476  0.77109288    -0.56900
O90         O  0.76170677  0.81846596  0.75219974    -0.56100
O91         O  0.81984855  0.66279446  0.74572857    -0.57300
C92         C  0.95372235  0.70840462  0.74851310     0.75300
O93         O  0.84958663  0.74200419  0.65884876    -0.58500
C94         C  0.81704688  0.63611943  0.72142118     0.75300
C95         C  0.82284962  0.77525134  0.74839369     0.77700
Cd96       Cd  0.87058011  0.70896233  0.71544860     1.37500
O97         O  0.93017759  0.67608277  0.74982775    -0.57300
O98         O  0.85459805  0.75873300  0.76362258    -0.56100
C99         C  0.88197318  0.73127193  0.64205814     0.77700
O100        O  0.81432366  0.76254062  0.71777346    -0.58500
O101        O  0.93937086  0.73993891  0.73157304    -0.56900
O102        O  0.84247301  0.64021271  0.69616715    -0.56900
O103        O  0.90780663  0.70742785  0.65827846    -0.56100
O104        O  0.75545289  0.60365698  0.74458930    -0.57300
C105        C  0.71408604  0.47258907  0.74842825     0.75300
O106        O  0.66260589  0.61743899  0.71374951    -0.58500
C107        C  0.78315204  0.60481642  0.72085171     0.75300
C108        C  0.68860137  0.54287810  0.64014370     0.77700
Cd109      Cd  0.70840277  0.55435211  0.71390765     1.37500
O110        O  0.74602842  0.49620799  0.74554657    -0.57300
O111        O  0.72602719  0.54829531  0.65091171    -0.56100
C112        C  0.64967384  0.61236856  0.74493542     0.77700
O113        O  0.66022956  0.54187079  0.66335611    -0.58500
O114        O  0.68017625  0.48604710  0.73467075    -0.56900
O115        O  0.77804669  0.58026569  0.69516610    -0.56900
O116        O  0.66214722  0.57960314  0.76122010    -0.56100
O117        O  0.43759640  0.18745277  0.75688732    -0.57300
C118        C  0.32586613  0.15879951  0.79475428     0.75300
O119        O  0.38769390  0.28856582  0.83093593    -0.58500
C120        C  0.46123673  0.21888035  0.75071100     0.75300
C121        C  0.32384430  0.28495056  0.74768978     0.77700
Cd122      Cd  0.38135043  0.23081170  0.78700906     1.37500
O123        O  0.33716371  0.17207365  0.76467772    -0.57300
O124        O  0.36144742  0.27979120  0.73790109    -0.56100
C125        C  0.40140053  0.26563335  0.85604366     0.77700
O126        O  0.31328397  0.26636900  0.77585026    -0.58500
O127        O  0.34333729  0.17583745  0.82108688    -0.56900
O128        O  0.44825347  0.25402335  0.76142232    -0.56900
O129        O  0.40673412  0.22715087  0.84888429    -0.56100
O130        O  0.25564436  0.01160708  0.78387918    -0.57300
C131        C  0.29179973  0.12760850  0.79889754     0.75300
O132        O  0.16876555  0.13536976  0.79647079    -0.58500
C133        C  0.22254339  0.99060417  0.77745413     0.75300
C134        C  0.18650898  0.05734285  0.87650462     0.77700
Cd135      Cd  0.21718531  0.07481853  0.80573554     1.37500
O136        O  0.27368567  0.11142257  0.77253705    -0.57300
O137        O  0.22439693  0.04960402  0.86855202    -0.56100
C138        C  0.15808628  0.12608662  0.76531236     0.77700
O139        O  0.16395983  0.07464474  0.85278218    -0.58500
O140        O  0.27716225  0.11770317  0.82878936    -0.56900
O141        O  0.18791903  0.00809946  0.78443429    -0.56900
O142        O  0.17418367  0.09304767  0.75286878    -0.56100
O143        O  0.16327877  0.33650004  0.70835432    -0.57300
C144        C  0.22907286  0.43747458  0.72716803     0.75300
O145        O  0.30474962  0.33315757  0.70134906    -0.58500
C146        C  0.15989158  0.30617644  0.68726509     0.75300
C147        C  0.25660379  0.37921942  0.61505034     0.77700
Cd148      Cd  0.23288641  0.36001198  0.68717003     1.37500
O149        O  0.19585106  0.42077303  0.71489597    -0.57300
O150        O  0.22860226  0.40041060  0.63052438    -0.56100
C151        C  0.29362636  0.31057967  0.72730452     0.77700
O152        O  0.27094122  0.34760156  0.63177221    -0.58500
O153        O  0.26347399  0.41980040  0.71957637    -0.56900
O154        O  0.18846336  0.30265493  0.66449242    -0.56900
O155        O  0.25486705  0.31079725  0.73468896    -0.56100
O156        O  0.01040924  0.23908769  0.73246678    -0.57300
C157        C  0.12664293  0.27448133  0.69082525     0.75300
O158        O  0.11765565  0.14292830  0.71349262    -0.58500
C159        C  0.99599048  0.20518329  0.74559863     0.75300
C160        C  0.04039540  0.17716311  0.63632041     0.77700
Cd161      Cd  0.07097433  0.20471976  0.70381113     1.37500
O162        O  0.09957199  0.27595399  0.71507257    -0.57300
O163        O  0.02961419  0.21300247  0.64747300    -0.56100
C164        C  0.12866238  0.15237061  0.74453028     0.77700
O165        O  0.06412509  0.15534587  0.65636845    -0.58500
O166        O  0.12568524  0.24259426  0.67128135    -0.56900
O167        O  0.01567853  0.17164100  0.73894122    -0.56900
O168        O  0.11314490  0.18577271  0.75679648    -0.56100
O169        O  0.17618063  0.59943983  0.76704821    -0.57300
C170        C  0.22840787  0.47525397  0.74934014     0.75300
O171        O  0.29014380  0.60292818  0.79336628    -0.58500
C172        C  0.16020158  0.60926015  0.79617454     0.75300
C173        C  0.26036255  0.52687850  0.86179183     0.77700
Cd174      Cd  0.23114535  0.55136526  0.79165586     1.37500
O175        O  0.19461670  0.49223930  0.75959331    -0.57300
O176        O  0.22171774  0.52281215  0.85348603    -0.56100
C177        C  0.28928706  0.61117530  0.76072468     0.77700
O178        O  0.28448939  0.53962401  0.83751986    -0.58500
O179        O  0.26230917  0.49230748  0.75945460    -0.56900
O180        O  0.17441393  0.58995378  0.82309233    -0.56900
O181        O  0.26215294  0.59168707  0.74249134    -0.56100
O182        O  0.00972042  0.67995852  0.78482779    -0.57300
C183        C  0.12894844  0.64338707  0.79869663     0.75300
O184        O  0.14210197  0.75840515  0.80203356    -0.58500
C185        C  0.99523888  0.71018499  0.76633049     0.75300
C186        C  0.05187716  0.74968130  0.87237845     0.77700
Cd187      Cd  0.07574589  0.71769182  0.80393353     1.37500
O188        O  0.11644687  0.66382614  0.77176526    -0.57300
O189        O  0.04353539  0.71222913  0.86357025    -0.56100
C190        C  0.13231294  0.78030080  0.77510923     0.77700
O191        O  0.07272899  0.77133041  0.85052857    -0.58500
O192        O  0.11510569  0.65554097  0.82802021    -0.56900
O193        O  0.01803444  0.74282070  0.76449708    -0.56900
O194        O  0.09639711  0.77343984  0.76136760    -0.56100
O195        O  0.28256239  0.82789863  0.75036567    -0.57300
C196        C  0.22343637  0.94849174  0.76186036     0.75300
O197        O  0.17973986  0.86055148  0.67385283    -0.58500
C198        C  0.29093435  0.81142159  0.72106445     0.75300
C199        C  0.16156101  0.81137526  0.75998410     0.77700
Cd200      Cd  0.22142878  0.86781289  0.72700672     1.37500
O201        O  0.25730426  0.93089079  0.75259214    -0.57300
O202        O  0.19823920  0.81671829  0.77266287    -0.56100
C203        C  0.19884081  0.88812558  0.65566280     0.77700
O204        O  0.15177205  0.83345198  0.73319915    -0.58500
O205        O  0.18969441  0.92835782  0.75626351    -0.56900
O206        O  0.26992588  0.82401370  0.69455173    -0.56900
O207        O  0.23024274  0.90611053  0.66991115    -0.56100
O208        O  0.43615411  0.73985387  0.73318546    -0.57300
C209        C  0.32112371  0.77708735  0.71799967     0.75300
O210        O  0.38174700  0.65719994  0.66266033    -0.58500
C211        C  0.45414837  0.70645564  0.74389598     0.75300
C212        C  0.31781885  0.64204304  0.74453492     0.77700
Cd213      Cd  0.37257630  0.70370674  0.71246321     1.37500
O214        O  0.34199962  0.76331992  0.74425242    -0.57300
O215        O  0.34627520  0.66047680  0.76225895    -0.56100
C216        C  0.39882632  0.68433745  0.64266718     0.77700
O217        O  0.31492022  0.65178520  0.71220659    -0.58500
O218        O  0.32546603  0.75805968  0.68921045    -0.56900
O219        O  0.43414055  0.67226007  0.74057593    -0.56900
O220        O  0.40239848  0.72130626  0.65440610    -0.56100
C221        C  0.61327973  0.53014260  0.49877163    -0.02000
C222        C  0.44170361  0.61741230  0.50335822    -0.02000
C223        C  0.51794934  0.35739931  0.50172217    -0.02000
C224        C  0.34551526  0.45181980  0.49411845    -0.02000
O225        O  0.65376560  0.85883564  0.21490288    -0.57300
C226        C  0.72380785  0.96558907  0.23548426     0.75300
O227        O  0.79528027  0.85444476  0.21259812    -0.58500
C228        C  0.65410338  0.82844936  0.19361152     0.75300
C229        C  0.74438444  0.91018657  0.12562551     0.77700
Cd230      Cd  0.72488115  0.88619726  0.19816738     1.37500
O231        O  0.69020295  0.94453773  0.23114435    -0.57300
O232        O  0.71545480  0.92856091  0.14235605    -0.56100
C233        C  0.78435068  0.83719253  0.24135728     0.77700
O234        O  0.76227557  0.87968400  0.14154252    -0.58500
O235        O  0.75677196  0.95080298  0.22184960    -0.56900
O236        O  0.68515416  0.82674472  0.17305152    -0.56900
O237        O  0.74656592  0.84271022  0.25030906    -0.56100
O238        O  0.50269885  0.75630013  0.22060722    -0.57300
C239        C  0.62208010  0.79484053  0.19415595     0.75300
O240        O  0.62969043  0.67238346  0.20278884    -0.58500
C241        C  0.48975521  0.72438958  0.23784059     0.75300
C242        C  0.54217012  0.68466177  0.13360452     0.77700
Cd243      Cd  0.56867223  0.72064507  0.19975311     1.37500
O244        O  0.59506519  0.79145828  0.21838121    -0.57300
O245        O  0.54306593  0.72420485  0.13786029    -0.56100
C246        C  0.62926570  0.66746292  0.23585593     0.77700
O247        O  0.55170474  0.66218389  0.16018317    -0.58500
O248        O  0.62212927  0.76600765  0.17151289    -0.56900
O249        O  0.51301575  0.69209583  0.23746874    -0.56900
O250        O  0.60111062  0.68709390  0.25232127    -0.56100
O251        O  0.75491493  0.52710662  0.26245824    -0.57300
C252        C  0.79313363  0.64178842  0.29614621     0.75300
O253        O  0.65642825  0.63147855  0.28656139    -0.58500
C254        C  0.72019200  0.50850383  0.25642857     0.75300
C255        C  0.69474035  0.57242386  0.36235018     0.77700
Cd256      Cd  0.72084902  0.58832642  0.29114648     1.37500
O257        O  0.77928706  0.62961074  0.26666090    -0.57300
O258        O  0.71272788  0.54373504  0.34504715    -0.56100
C259        C  0.65992299  0.64041995  0.25422250     0.77700
O260        O  0.69055226  0.60770978  0.34685496    -0.58500
O261        O  0.77759389  0.62466378  0.32325045    -0.56900
O262        O  0.68711473  0.52623706  0.26709743    -0.56900
O263        O  0.69119119  0.62495229  0.23861729    -0.56100
O264        O  0.83801337  0.69385582  0.27145097    -0.57300
C265        C  0.94644927  0.74343915  0.26431243     0.75300
O266        O  0.80218247  0.79275873  0.29084023    -0.58500
C267        C  0.82231286  0.67718646  0.29869334     0.75300
C268        C  0.89495991  0.77699693  0.37255576     0.77700
Cd269      Cd  0.86956497  0.75406450  0.30147392     1.37500
O270        O  0.92400810  0.71206416  0.27287014    -0.57300
O271        O  0.90799944  0.74415417  0.35766383    -0.56100
C272        C  0.81365285  0.81110000  0.26267257     0.77700
O273        O  0.87018213  0.80022566  0.35459934    -0.58500
O274        O  0.93390129  0.77943305  0.27371045    -0.56900
O275        O  0.82993244  0.69492082  0.32773351    -0.56900
O276        O  0.85126766  0.80492438  0.25340342    -0.56100
O277        O  0.19631019  0.51290332  0.21608222    -0.57300
C278        C  0.15049611  0.63121888  0.19647014     0.75300
O279        O  0.29049920  0.62531086  0.20343503    -0.58500
C280        C  0.23053030  0.49887684  0.22910141     0.75300
C281        C  0.25260406  0.57272660  0.12388570     0.77700
Cd282      Cd  0.22659613  0.58182040  0.19597165     1.37500
O283        O  0.15972133  0.60704395  0.22206852    -0.57300
O284        O  0.22596455  0.54780952  0.13770180    -0.56100
C285        C  0.28494470  0.63316840  0.23558417     0.77700
O286        O  0.26572311  0.60249428  0.14289501    -0.58500
O287        O  0.17431347  0.62998904  0.17010395    -0.56900
O288        O  0.26279909  0.52184694  0.22512153    -0.56900
O289        O  0.25263624  0.61716802  0.24972700    -0.56100
O290        O  0.09124708  0.66357513  0.22375371    -0.57300
C291        C  0.98501826  0.73867320  0.24417910     0.75300
O292        O  0.10316825  0.79777000  0.21266237    -0.58500
C293        C  0.11655176  0.66216518  0.19819207     0.75300
C294        C  0.03297251  0.75174431  0.13479275     0.77700
Cd295      Cd  0.06102339  0.73257994  0.20509506     1.37500
O296        O  0.99858776  0.70293869  0.23490021    -0.57300
O297        O  0.01743016  0.72043839  0.15116347    -0.56100
C298        C  0.11635318  0.78852764  0.24336079     0.77700
O299        O  0.06037354  0.77343476  0.15096202    -0.58500
O300        O  0.00621555  0.77063835  0.23507534    -0.56900
O301        O  0.11349698  0.69098956  0.17509191    -0.56900
O302        O  0.10436316  0.75354662  0.25618179    -0.56100
O303        O  0.26398827  0.83880178  0.27318113    -0.57300
C304        C  0.20870753  0.95387487  0.26880888     0.75300
O305        O  0.15704285  0.80742082  0.29404775    -0.58500
C306        C  0.27688282  0.81857313  0.30009727     0.75300
C307        C  0.17458114  0.88675622  0.37419488     0.77700
Cd308      Cd  0.20168676  0.87093968  0.30215217     1.37500
O309        O  0.24116890  0.93201635  0.27580160    -0.57300
O310        O  0.21186201  0.89406512  0.36405971    -0.56100
C311        C  0.14437280  0.81663757  0.26327852     0.77700
O312        O  0.14933603  0.87329361  0.35086019    -0.58500
O313        O  0.17377850  0.93836818  0.27829333    -0.56900
O314        O  0.25681184  0.82435503  0.32822266    -0.56900
O315        O  0.15729378  0.85124609  0.25047357    -0.56100
O316        O  0.42644813  0.75587482  0.26044028    -0.57300
C317        C  0.31130806  0.78760297  0.29835276     0.75300
O318        O  0.31131180  0.66472605  0.28810370    -0.58500
C319        C  0.44955963  0.72364308  0.25702092     0.75300
C320        C  0.39415355  0.68830851  0.36306370     0.77700
Cd321      Cd  0.36915300  0.71695351  0.29307727     1.37500
O322        O  0.33088911  0.78060008  0.27015671    -0.57300
O323        O  0.39978052  0.72609769  0.35280796    -0.56100
C324        C  0.31411471  0.66017802  0.25520952     0.77700
O325        O  0.37786713  0.66364613  0.34073221    -0.58500
O326        O  0.32101701  0.76460840  0.32459065    -0.56900
O327        O  0.43616484  0.68977779  0.27079135    -0.56900
O328        O  0.34295951  0.68067379  0.23994209    -0.56100
O329        O  0.20069704  0.43608098  0.25474421    -0.57300
C330        C  0.16618794  0.32483595  0.29187188     0.75300
O331        O  0.28948897  0.32013269  0.28693285    -0.58500
C332        C  0.23294326  0.45853211  0.24864972     0.75300
C333        C  0.26707115  0.40437849  0.35817115     0.77700
Cd334      Cd  0.23961400  0.37973252  0.28831462     1.37500
O335        O  0.18279362  0.33515440  0.26289666    -0.57300
O336        O  0.23309036  0.41820681  0.34456629    -0.56100
C337        C  0.29893492  0.32435305  0.25480115     0.77700
O338        O  0.28847793  0.37956715  0.33963398    -0.58500
O339        O  0.18148863  0.34186996  0.31906576    -0.56900
O340        O  0.26763589  0.44494647  0.26094788    -0.56900
O341        O  0.28249182  0.35516875  0.23835302    -0.56100
O342        O  0.11854745  0.27492140  0.26667113    -0.57300
C343        C  0.99260935  0.23205810  0.26485957     0.75300
O344        O  0.13282729  0.17000577  0.29573869    -0.58500
C345        C  0.13270324  0.29277466  0.29395182     0.75300
C346        C  0.05653967  0.19048000  0.36821300     0.77700
Cd347      Cd  0.07472191  0.22213121  0.29799852     1.37500
O348        O  0.01370310  0.26448929  0.27310209    -0.57300
O349        O  0.06096841  0.22972675  0.36278850    -0.56100
C350        C  0.12761114  0.16096495  0.26361813     0.77700
O351        O  0.05860077  0.16728381  0.34146208    -0.58500
O352        O  0.00897511  0.19692305  0.27254585    -0.56900
O353        O  0.11818461  0.27998514  0.32313856    -0.56900
O354        O  0.09789986  0.17966096  0.24745791    -0.56100
O355        O  0.43467034  0.19775292  0.23729664    -0.57300
C356        C  0.31564894  0.16289665  0.20311680     0.75300
O357        O  0.33482934  0.29707808  0.20487853    -0.58500
C358        C  0.45437003  0.23211925  0.24150052     0.75300
C359        C  0.40763202  0.24290802  0.13215443     0.77700
Cd360      Cd  0.37621825  0.23070414  0.20275161     1.37500
O361        O  0.34615282  0.16331649  0.22487312    -0.57300
O362        O  0.41399334  0.20806772  0.14795039    -0.56100
C363        C  0.32630431  0.29398027  0.23731123     0.77700
O364        O  0.38573497  0.26980591  0.14815391    -0.58500
O365        O  0.31446794  0.19233279  0.18037123    -0.56900
O366        O  0.43804024  0.26486466  0.22791480    -0.56900
O367        O  0.34143181  0.26251841  0.25376386    -0.56100
O368        O  0.28147774  0.10244806  0.22843588    -0.57300
C369        C  0.21077733  0.99469911  0.24988615     0.75300
O370        O  0.14976357  0.12163173  0.21378669    -0.58500
C371        C  0.28211166  0.13107747  0.20488674     0.75300
C372        C  0.19194188  0.04460972  0.14004454     0.77700
Cd373      Cd  0.21145190  0.07402399  0.21036206     1.37500
O374        O  0.24511271  0.01056387  0.23914901    -0.57300
O375        O  0.22938641  0.04383735  0.15189275    -0.56100
C376        C  0.15514794  0.13088547  0.24587157     0.77700
O377        O  0.16426861  0.05972045  0.16009796    -0.58500
O378        O  0.17768319  0.01540783  0.24284143    -0.56900
O379        O  0.25136049  0.13209887  0.18345630    -0.56900
O380        O  0.18583706  0.11341010  0.26172672    -0.56100
O381        O  0.51129195  0.20281328  0.27568922    -0.57300
C382        C  0.62898666  0.17035267  0.30155829     0.75300
O383        O  0.63052370  0.29476804  0.29225436    -0.58500
C384        C  0.49434315  0.23465370  0.26091985     0.75300
C385        C  0.54654893  0.27635692  0.36405512     0.77700
Cd386      Cd  0.57345126  0.24278603  0.29757689     1.37500
O387        O  0.60415891  0.17614934  0.27569463    -0.57300
O388        O  0.53713972  0.23912351  0.35515354    -0.56100
C389        C  0.62624181  0.30119889  0.25953878     0.77700
O390        O  0.56791311  0.29761882  0.34226462    -0.58500
O391        O  0.62645187  0.19630759  0.32642199    -0.56900
O392        O  0.51363548  0.26938265  0.26350073    -0.56900
O393        O  0.59765633  0.28041963  0.24394886    -0.56100
O394        O  0.66505522  0.11212187  0.27619456    -0.57300
C395        C  0.72542851  0.00477045  0.25585939     0.75300
O396        O  0.78445955  0.13912815  0.29657850    -0.58500
C397        C  0.66116942  0.13711750  0.30163610     0.75300
C398        C  0.76411116  0.04584291  0.36376102     0.77700
Cd399      Cd  0.73254781  0.08067706  0.29741723     1.37500
O400        O  0.69418724  0.01827480  0.27296520    -0.57300
O401        O  0.72544277  0.04319369  0.35536294    -0.56100
C402        C  0.78871891  0.14006161  0.26349607     0.77700
O403        O  0.78754789  0.06479939  0.34192966    -0.58500
O404        O  0.75896384  0.02628243  0.25771949    -0.56900
O405        O  0.68811989  0.13378555  0.32625560    -0.56900
O406        O  0.76783348  0.11323915  0.24617090    -0.56100
O407        O  0.93507230  0.26742062  0.23492825    -0.57300
C408        C  0.81409926  0.30104963  0.20545631     0.75300
O409        O  0.87733840  0.17830291  0.16452296    -0.58500
C410        C  0.95140412  0.23371792  0.24692888     0.75300
C411        C  0.81632302  0.17077824  0.24598192     0.77700
Cd412      Cd  0.87080535  0.23050377  0.21061031     1.37500
O413        O  0.83582717  0.29434303  0.23307580    -0.57300
O414        O  0.83704551  0.19800961  0.26302114    -0.56100
C415        C  0.89490591  0.20185103  0.14191199     0.77700
O416        O  0.82042873  0.17136768  0.21291176    -0.58500
O417        O  0.82059555  0.27710567  0.17977135    -0.56900
O418        O  0.93068655  0.20020103  0.24223475    -0.56900
O419        O  0.90192099  0.23960960  0.15086279    -0.56100
O420        O  0.74904823  0.45129506  0.22390202    -0.57300
C421        C  0.78099205  0.33305090  0.20390840     0.75300
O422        O  0.64998086  0.33721059  0.20781671    -0.58500
C423        C  0.71749464  0.46825738  0.23808464     0.75300
C424        C  0.67907514  0.40928908  0.13390961     0.77700
Cd425      Cd  0.70922744  0.38806290  0.20383946     1.37500
O426        O  0.77342392  0.35638793  0.22980985    -0.57300
O427        O  0.71826705  0.40974059  0.14084147    -0.56100
C428        C  0.65337686  0.33101598  0.24062831     0.77700
O429        O  0.65481120  0.40048629  0.15920757    -0.58500
O430        O  0.75701925  0.33695013  0.17725114    -0.56900
O431        O  0.68280288  0.44882904  0.23566618    -0.56900
O432        O  0.68175303  0.35165144  0.25652431    -0.56100
C433        C  0.30319531  0.39937683  0.45405449    -0.01300
C434        C  0.31934860  0.44147230  0.45942430     0.08300
C435        C  0.30815846  0.47223570  0.43238534    -0.01400
C436        C  0.29348239  0.45926457  0.39908141    -0.01400
C437        C  0.28172881  0.41739710  0.39354552     0.08500
C438        C  0.28408240  0.38819206  0.42156274    -0.01600
Br439      Br  0.26273017  0.33186278  0.41430909    -0.00200
Br440      Br  0.31054723  0.35414112  0.48860944    -0.00300
Br441      Br  0.29067137  0.49909909  0.35988038    -0.00200
Br442      Br  0.30327311  0.53253926  0.43884735    -0.00200
C443        C  0.45511629  0.40256032  0.53113381    -0.01300
C444        C  0.46974084  0.37520585  0.50427616     0.08300
C445        C  0.43679883  0.36486853  0.47951709    -0.01400
C446        C  0.40271477  0.39259226  0.47219894    -0.01400
C447        C  0.38861122  0.42323675  0.49755710     0.08500
C448        C  0.41785766  0.42749018  0.52695116    -0.01600
Br449      Br  0.41646036  0.47298996  0.56044224    -0.00200
Br450      Br  0.47429537  0.39678406  0.57948649    -0.00300
Br451      Br  0.38735935  0.38940489  0.42248478    -0.00200
Br452      Br  0.42951609  0.30868836  0.45968116    -0.00200
C453        C  0.54137941  0.27134169  0.42962667    -0.01300
C454        C  0.53425679  0.29421861  0.39835550     0.08300
C455        C  0.51679518  0.33479484  0.39988938    -0.01400
C456        C  0.51200152  0.35500066  0.43260069    -0.01400
C457        C  0.52099781  0.33293001  0.46552881     0.08500
C458        C  0.53074465  0.28848171  0.46245590    -0.01600
Br459      Br  0.52047346  0.24509118  0.49779666    -0.00200
Br460      Br  0.56734205  0.21599762  0.42768838    -0.00300
Br461      Br  0.49739990  0.41457605  0.42971028    -0.00200
Br462      Br  0.49994919  0.36314141  0.35651063    -0.00200
C463        C  0.42616537  0.53900390  0.48425573    -0.01300
C464        C  0.41461911  0.57364713  0.50541999     0.08300
C465        C  0.37501960  0.56662921  0.52402120    -0.01400
C466        C  0.34844732  0.53134405  0.51624633    -0.01400
C467        C  0.36211546  0.49891165  0.49346054     0.08500
C468        C  0.39646268  0.51063670  0.47198361    -0.01600
Br469      Br  0.40814533  0.48899002  0.42629934    -0.00200
Br470      Br  0.47417969  0.50457205  0.49618892    -0.00300
Br471      Br  0.28865239  0.53737963  0.52607200    -0.00200
Br472      Br  0.35380678  0.59932347  0.56310333    -0.00200
C473        C  0.38425011  0.64143215  0.45552550    -0.01300
C474        C  0.42609838  0.64485711  0.46995370     0.08300
C475        C  0.45386625  0.67225088  0.45003728    -0.01400
C476        C  0.44385531  0.68510136  0.41505817    -0.01400
C477        C  0.40514356  0.67392712  0.39952163     0.08500
C478        C  0.37523449  0.65241474  0.42005658    -0.01600
Br479      Br  0.31955217  0.64155431  0.40063165    -0.00200
Br480      Br  0.33538960  0.64107829  0.48498935    -0.00300
Br481      Br  0.48540526  0.71472505  0.38685748    -0.00200
Br482      Br  0.50370391  0.69802272  0.46946225    -0.00200
C483        C  0.54344135  0.56013455  0.46925329    -0.01300
C484        C  0.57163146  0.55970398  0.49963232     0.08300
C485        C  0.56039270  0.58955076  0.52654875    -0.01400
C486        C  0.52410250  0.61585971  0.52291726    -0.01400
C487        C  0.49120420  0.60657261  0.49790824     0.08500
C488        C  0.50601602  0.58512788  0.46750009    -0.01600
Br489      Br  0.47394209  0.58390209  0.42321154    -0.00200
Br490      Br  0.55136802  0.52389759  0.42892769    -0.00300
Br491      Br  0.52584444  0.66858375  0.54932955    -0.00200
Br492      Br  0.58798654  0.59592569  0.57192069    -0.00200
C493        C  0.56750080  0.46716934  0.52591194    -0.01300
C494        C  0.59277784  0.48260324  0.49697818     0.08300
C495        C  0.59962868  0.45094148  0.47046961    -0.01400
C496        C  0.58076081  0.40929812  0.47266997    -0.01400
C497        C  0.55158931  0.39724032  0.50075193     0.08500
C498        C  0.55541871  0.42442627  0.52986276    -0.01600
Br499      Br  0.57325332  0.40115167  0.57528971    -0.00200
Br500      Br  0.55286447  0.49947459  0.56636455    -0.00300
Br501      Br  0.60407251  0.36928619  0.43887251    -0.00200
Br502      Br  0.63385225  0.46116786  0.42912410    -0.00200
C503        C  0.70141727  0.54231956  0.42409717    -0.01300
C504        C  0.67848150  0.56543593  0.39851643     0.08300
C505        C  0.64122215  0.58530572  0.40865865    -0.01400
C506        C  0.62797720  0.58236321  0.44360642    -0.01400
C507        C  0.64125900  0.54728984  0.46595569     0.08500
C508        C  0.68325632  0.53275324  0.45745415    -0.01600
Br509      Br  0.71946619  0.50137204  0.48910165    -0.00200
Br510      Br  0.75838413  0.52470883  0.41344518    -0.00300
Br511      Br  0.60371521  0.63531062  0.45940307    -0.00200
Br512      Br  0.60640613  0.61666784  0.37520015    -0.00200
C513        C  0.44709715  0.61935089  0.57186689    -0.01300
C514        C  0.43513557  0.64085361  0.53950881     0.08300
C515        C  0.41532830  0.68173160  0.54362139    -0.01400
C516        C  0.40199374  0.69483910  0.57726975    -0.01400
C517        C  0.41450972  0.67266038  0.60772457     0.08500
C518        C  0.44008542  0.63716825  0.60495328    -0.01600
Br519      Br  0.46489125  0.61222595  0.64730172    -0.00200
Br520      Br  0.46913687  0.56314122  0.57396464    -0.00300
Br521      Br  0.36238565  0.74097480  0.58182040    -0.00200
Br522      Br  0.40575450  0.72398176  0.50714261    -0.00200
C523        C  0.25026531  0.41059841  0.55349050    -0.01300
C524        C  0.27529249  0.39380729  0.58135198     0.08300
C525        C  0.31889959  0.40159607  0.58060479    -0.01400
C526        C  0.33161287  0.43662433  0.56126454    -0.01400
C527        C  0.31470381  0.44246751  0.52699361     0.08500
C528        C  0.26970243  0.43372196  0.52538370    -0.01600
Br529      Br  0.23182130  0.45590684  0.48928870    -0.00200
Br530      Br  0.19044400  0.39907200  0.55303320    -0.00300
Br531      Br  0.32497894  0.48315248  0.59362482    -0.00200
Br532      Br  0.35720317  0.38169850  0.61685633    -0.00200
C533        C  0.66318732  0.49898581  0.59051129    -0.01300
C534        C  0.67840667  0.53756919  0.60242625     0.08300
C535        C  0.68604527  0.56996170  0.57783214    -0.01400
C536        C  0.66927065  0.56724186  0.54306971    -0.01400
C537        C  0.64412256  0.53118280  0.53280079     0.08500
C538        C  0.65199537  0.49437509  0.55484078    -0.01600
Br539      Br  0.66306248  0.43818925  0.53705109    -0.00200
Br540      Br  0.66198023  0.45115934  0.62261317    -0.00300
Br541      Br  0.68253011  0.61443115  0.51283177    -0.00200
Br542      Br  0.71613086  0.61976535  0.59323267    -0.00200
C543        C  0.57197095  0.31379177  0.54263379    -0.01300
C544        C  0.52901087  0.32651801  0.53460132     0.08300
C545        C  0.49758305  0.30720864  0.55743384    -0.01400
C546        C  0.50925782  0.28576243  0.58901903    -0.01400
C547        C  0.55160165  0.27845845  0.59748220     0.08500
C548        C  0.58276247  0.29154835  0.57404332    -0.01600
Br549      Br  0.64114401  0.27817054  0.58563754    -0.00200
Br550      Br  0.61896690  0.32432934  0.51259969    -0.00300
Br551      Br  0.46687821  0.26675517  0.62226311    -0.00200
Br552      Br  0.43824597  0.30081580  0.54614879    -0.00200
C553        C  0.38525626  0.31917641  0.94456713    -0.01300
C554        C  0.42384167  0.31045060  0.96386856     0.08300
C555        C  0.45184105  0.28135805  0.94682491    -0.01400
C556        C  0.44523823  0.26845900  0.91160252    -0.01400
C557        C  0.40986266  0.28228056  0.89213606     0.08500
C558        C  0.38038320  0.30838100  0.90861669    -0.01600
Br559      Br  0.33142715  0.32849437  0.88224667    -0.00200
Br560      Br  0.33240683  0.33115158  0.96653962    -0.00300
Br561      Br  0.48720433  0.23401515  0.88875444    -0.00200
Br562      Br  0.49669327  0.25260879  0.97147910    -0.00200
C563        C  0.41638459  0.26094009  0.03373322    -0.01300
C564        C  0.43541610  0.30316876  0.03330063     0.08300
C565        C  0.44782855  0.31777448  0.06797148    -0.01400
C566        C  0.45078147  0.29033358  0.09700172    -0.01400
C567        C  0.42637849  0.25427432  0.09778184     0.08500
C568        C  0.41073504  0.23830008  0.06615802    -0.01600
Br569      Br  0.37952570  0.18579059  0.06892826    -0.00200
Br570      Br  0.38745255  0.23374050  0.99485791    -0.00300
Br571      Br  0.48287916  0.30506655  0.13898364    -0.00200
Br572      Br  0.44444637  0.37403136  0.08514157    -0.00200
C573        C  0.56377290  0.36338457  0.00041507    -0.01300
C574        C  0.56194323  0.40534561  0.98651210     0.08300
C575        C  0.52816270  0.40906259  0.96118591    -0.01400
C576        C  0.49431219  0.37894946  0.96046791    -0.01400
C577        C  0.48667130  0.35049906  0.99003493     0.08500
C578        C  0.52587147  0.34036627  0.00822462    -0.01600
Br579      Br  0.53434804  0.29498797  0.04212910    -0.00200
Br580      Br  0.61727126  0.33404287  0.00268849    -0.00300
Br581      Br  0.46243608  0.37715577  0.91680835    -0.00200
Br582      Br  0.52706746  0.45168058  0.92423269    -0.00200
C583        C  0.61571539  0.41924862  0.92739231    -0.01300
C584        C  0.63290425  0.42801375  0.96163048     0.08300
C585        C  0.67622747  0.41292687  0.96567192    -0.01400
C586        C  0.69639431  0.39285805  0.93671794    -0.01400
C587        C  0.67160948  0.37718690  0.90868631     0.08500
C588        C  0.62794528  0.38247407  0.91111936    -0.01600
Br589      Br  0.58770165  0.35608516  0.87999219    -0.00200
Br590      Br  0.61797417  0.45998895  0.88876935    -0.00300
Br591      Br  0.75648533  0.38199807  0.93687327    -0.00200
Br592      Br  0.71042065  0.41238321  0.00779884    -0.00200
C593        C  0.60556175  0.40505984  0.05679834    -0.01300
C594        C  0.61948418  0.43617112  0.03180404     0.08300
C595        C  0.65022916  0.46484173  0.04706295    -0.01400
C596        C  0.66912555  0.45655744  0.08072958    -0.01400
C597        C  0.66165979  0.41814446  0.09825850     0.08500
C598        C  0.63182819  0.39071913  0.08408549    -0.01600
Br599      Br  0.62050152  0.33648226  0.10589323    -0.00200
Br600      Br  0.54868637  0.40311387  0.07290894    -0.00300
Br601      Br  0.70444866  0.49797901  0.10386423    -0.00200
Br602      Br  0.66992801  0.51532791  0.02501104    -0.00200
C603        C  0.39366344  0.44450559  0.98454429    -0.01300
C604        C  0.36063118  0.45465801  0.00772386     0.08300
C605        C  0.34756587  0.41821626  0.02871631    -0.01400
C606        C  0.37047279  0.37833198  0.02696274    -0.01400
C607        C  0.40889291  0.37470694  0.00631292     0.08500
C608        C  0.42328279  0.41435414  0.99561931    -0.01600
Br609      Br  0.46890766  0.43335089  0.02411310    -0.00200
Br610      Br  0.37700078  0.43251827  0.93696990    -0.00300
Br611      Br  0.34683249  0.33091809  0.05324882    -0.00200
Br612      Br  0.29472177  0.41615237  0.05410987    -0.00200
C613        C  0.33251327  0.53433290  0.93970487    -0.01300
C614        C  0.31928734  0.50393748  0.96536929     0.08300
C615        C  0.28828388  0.47471053  0.95097197    -0.01400
C616        C  0.27008557  0.48104664  0.91665092    -0.07800
C617        C  0.27729415  0.51884505  0.89798243     0.08500
C618        C  0.30582183  0.54754745  0.91234594    -0.01600
Br619      Br  0.31491912  0.60239373  0.89107933    -0.00200
Br620      Br  0.38883863  0.53472177  0.92270003    -0.00300
Br621      Br  0.23647807  0.43765121  0.89436493    -0.00200
Br622      Br  0.26693945  0.42626509  0.97509408    -0.00200
C623        C  0.31422722  0.55887990  0.08652979    -0.01300
C624        C  0.27072650  0.56444906  0.08890838     0.08300
C625        C  0.24568517  0.54989638  0.06078628    -0.01400
C626        C  0.26522849  0.52962843  0.03175065    -0.01400
C627        C  0.30821768  0.51363817  0.03563818     0.08500
C628        C  0.32617823  0.52232262  0.06972977    -0.01600
Br629      Br  0.32679767  0.48125461  0.10824266    -0.00200
Br630      Br  0.35371160  0.58397763  0.11914976    -0.00300
Br631      Br  0.23071549  0.53104379  0.98975225    -0.00200
Br632      Br  0.18614878  0.56311915  0.06093906    -0.00200
C633        C  0.51671155  0.52730993  0.00042506    -0.01300
C634        C  0.53086749  0.56656381  0.98831803     0.08300
C635        C  0.56902857  0.56218945  0.96751288    -0.01400
C636        C  0.59269518  0.52268753  0.96743445    -0.01400
C637        C  0.57976834  0.48680608  0.98907851     0.08500
C638        C  0.54616331  0.49709401  0.01170508    -0.01600
Br639      Br  0.56002731  0.50614099  0.06033047    -0.00200
Br640      Br  0.47104065  0.50674266  0.97287498    -0.00300
Br641      Br  0.64713461  0.52511168  0.94449008    -0.00200
Br642      Br  0.59254607  0.60871205  0.94015011    -0.00200
C643        C  0.41420090  0.60075432  0.98560363    -0.01300
C644        C  0.45337276  0.59170419  0.00426300     0.08300
C645        C  0.44577211  0.56446694  0.03454077    -0.01400
C646        C  0.41232043  0.53393171  0.03439806    -0.01400
C647        C  0.37826320  0.53643643  0.00914774     0.08500
C648        C  0.37635449  0.57787125  0.99405778    -0.01600
Br649      Br  0.32298868  0.60742830  0.99188514    -0.00200
Br650      Br  0.40560209  0.64470297  0.95041069    -0.00300
Br651      Br  0.41553422  0.49179238  0.07140649    -0.00200
Br652      Br  0.47752312  0.56828708  0.07828915    -0.00200
C653        C  0.49374122  0.65180863  0.89719142    -0.01300
C654        C  0.51798475  0.68786059  0.89775824     0.08300
C655        C  0.53147981  0.70419931  0.92970205    -0.01400
C656        C  0.52557505  0.68098871  0.96162117    -0.01400
C657        C  0.50554611  0.63908346  0.96142501     0.08500
C658        C  0.49333738  0.62499148  0.92667608    -0.01600
Br659      Br  0.48792985  0.56827342  0.91189951    -0.00200
Br660      Br  0.46604150  0.63702028  0.85300244    -0.00300
Br661      Br  0.55659362  0.70703056  0.00008452    -0.00200
Br662      Br  0.56034524  0.75819993  0.92776009    -0.00200
C663        C  0.48873856  0.66262430  0.04559467    -0.01300
C664        C  0.51625012  0.63196685  0.02978435     0.08300
C665        C  0.55501136  0.62374361  0.04903255    -0.01400
C666        C  0.56086292  0.63764234  0.08396496    -0.01400
C667        C  0.53225226  0.66567680  0.09900736     0.08500
C668        C  0.49661642  0.67850025  0.07967648    -0.01600
Br669      Br  0.45684299  0.71641746  0.10132901    -0.00200
Br670      Br  0.44318771  0.68970905  0.02041310    -0.00300
Br671      Br  0.61044627  0.62003463  0.11088382    -0.00200
Br672      Br  0.60721617  0.60808245  0.02770203    -0.00200
C673        C  0.14536002  0.06126000  0.97067122    -0.01300
C674        C  0.12455193  0.02067061  0.97465182     0.08300
C675        C  0.11825967  0.00008265  0.94178658    -0.01400
C676        C  0.14419096  0.00783017  0.91261146    -0.01400
C677        C  0.16811079  0.04463641  0.91079929     0.08500
C678        C  0.16708677  0.07238249  0.93916531    -0.01600
Br679      Br  0.19617318  0.12578247  0.93406528    -0.00200
Br680      Br  0.14537375  0.10479808  0.00548113    -0.00300
Br681      Br  0.14231488  0.97042410  0.87264319    -0.00200
Br682      Br  0.06433974  0.98099370  0.92752432    -0.00200
C683        C  0.15112220  0.99267680  0.10515187    -0.01300
C684        C  0.17994222  0.02627574  0.10572272     0.08300
C685        C  0.19801401  0.03919462  0.07342541    -0.01400
C686        C  0.18100507  0.02371632  0.04126685    -0.01400
C687        C  0.14171200  0.00188941  0.04178963     0.08500
C688        C  0.13811524  0.97645557  0.07264957    -0.01600
Br689      Br  0.15233003  0.91772565  0.06875986    -0.00200
Br690      Br  0.13519850  0.96385954  0.14807519    -0.00300
Br691      Br  0.22070887  0.01387369  0.00416756    -0.00200
Br692      Br  0.24486144  0.07776839  0.07279960    -0.00200
C693        C  0.04251078  0.89862111  0.03739837    -0.01300
C694        C  0.03929009  0.87517416  0.00503661     0.08300
C695        C  0.07321743  0.88624764  0.98140781    -0.01400
C696        C  0.09983859  0.92237119  0.98778262    -0.01400
C697        C  0.08722444  0.95502950  0.01108641     0.08500
C698        C  0.05985891  0.93965008  0.03834320    -0.01600
Br699      Br  0.04225670  0.97274009  0.07857506    -0.00200
Br700      Br  0.05510818  0.87183941  0.08264480    -0.00300
Br701      Br  0.15772633  0.91994953  0.97229305    -0.00200
Br702      Br  0.08725942  0.85420737  0.94037844    -0.00200
C703        C  0.03767242  0.74723545  0.93780786    -0.01300
C704        C  0.03530886  0.76839566  0.90500287     0.08300
C705        C  0.00985956  0.80444683  0.90229267    -0.01400
C706        C  0.98868633  0.81863660  0.93209727    -0.01400
C707        C  0.00376104  0.80770488  0.96655981     0.08500
C708        C  0.01795403  0.76469722  0.96766897    -0.01600
Br709      Br  0.99485059  0.72334770  0.00004023    -0.00200
Br710      Br  0.06836560  0.69499442  0.94236999    -0.00300
Br711      Br  0.92898274  0.82419295  0.92243391    -0.00200
Br712      Br  0.99886356  0.83217557  0.85750319    -0.00200
C713        C  0.04543557  0.78802087  0.04140494    -0.01300
C714        C  0.00710845  0.81195670  0.03486252     0.08300
C715        C  0.97879672  0.81379809  0.06405894    -0.01400
C716        C  0.98295102  0.78629786  0.09331738    -0.01400
C717        C  0.02026457  0.76369901  0.09863817     0.08500
C718        C  0.05088585  0.76363520  0.07246568    -0.01600
Br719      Br  0.10160676  0.73064135  0.08066212    -0.00200
Br720      Br  0.09511976  0.79183572  0.01234470    -0.00300
Br721      Br  0.94080895  0.78544330  0.12991463    -0.00200
Br722      Br  0.95025947  0.86486447  0.07558752    -0.00200
C723        C  0.87846268  0.87352750  0.99581005    -0.01300
C724        C  0.88151396  0.91825955  0.99137409     0.08300
C725        C  0.91930912  0.92883336  0.97293549    -0.01400
C726        C  0.95520828  0.90178138  0.97342633    -0.01400
C727        C  0.95740803  0.86465789  0.99496994     0.08500
C728        C  0.91574210  0.84786415  0.00119697    -0.01600
Br729      Br  0.90724509  0.78864636  0.01105953    -0.00200
Br730      Br  0.82647742  0.84528248  0.98288802    -0.00300
Br731      Br  0.99425824  0.91049642  0.93540675    -0.00200
Br732      Br  0.92167069  0.97511760  0.93942845    -0.00200
C733        C  0.83247615  0.94608415  0.92975937    -0.01300
C734        C  0.81393712  0.94947617  0.96352937     0.08300
C735        C  0.76965805  0.93996988  0.96359591    -0.01400
C736        C  0.75119434  0.91780708  0.93472673    -0.01400
C737        C  0.77700683  0.90292158  0.90726577     0.08500
C738        C  0.82008341  0.91329934  0.90813474    -0.01600
Br739      Br  0.85841603  0.89806540  0.87112879    -0.00200
Br740      Br  0.83434878  0.99549600  0.89918733    -0.00300
Br741      Br  0.69145491  0.90617958  0.93347417    -0.00200
Br742      Br  0.73159375  0.96552673  0.99631745    -0.00200
C743        C  0.80079670  0.97716767  0.05691191    -0.01300
C744        C  0.81703404  0.94446704  0.03363237     0.08300
C745        C  0.80490307  0.90290201  0.04442103    -0.01400
C746        C  0.76844072  0.89643593  0.06421875    -0.01400
C747        C  0.75973284  0.92525322  0.09069479     0.08500
C748        C  0.77570197  0.96628931  0.08668835    -0.01600
Br749      Br  0.76274928  0.00747787  0.12248071    -0.00200
Br750      Br  0.80780368  0.03737573  0.05209979    -0.00300
Br751      Br  0.74123547  0.84217497  0.06341400    -0.00200
Br752      Br  0.84546594  0.86924069  0.06999351    -0.00200
C753        C  0.89791852  0.00237393  0.02864080    -0.01300
C754        C  0.86685569  0.99700764  0.00183566     0.08300
C755        C  0.85880989  0.03391283  0.98105775    -0.01400
C756        C  0.88885451  0.06760318  0.97929335    -0.01400
C757        C  0.91999164  0.07447754  0.00688430     0.08500
C758        C  0.92098396  0.04060601  0.03250014    -0.01600
Br759      Br  0.95512397  0.04235020  0.07411080    -0.00200
Br760      Br  0.90676701  0.95865440  0.06387306    -0.00300
Br761      Br  0.88237479  0.10077984  0.93730204    -0.00200
Br762      Br  0.80168762  0.04741366  0.96537279    -0.00200
C763        C  0.06422357  0.07037500  0.03985827    -0.01300
C764        C  0.06672804  0.03390380  0.01774391     0.08300
C765        C  0.03261259  0.03051252  0.99388580    -0.01400
C766        C  0.00597297  0.06347503  0.98559856    -0.01400
C767        C  0.99735963  0.09431246  0.01117808     0.08500
C768        C  0.03250095  0.10206782  0.03394726    -0.01600
Br769      Br  0.05015174  0.16001495  0.04233272    -0.00200
Br770      Br  0.09830206  0.07815772  0.08122823    -0.00300
Br771      Br  0.98149653  0.06031425  0.93896497    -0.00200
Br772      Br  0.99602884  0.98448611  0.99823374    -0.00200
C773        C  0.90543659  0.19690572  0.94494354    -0.01300
C774        C  0.92747053  0.18473956  0.91479578     0.08300
C775        C  0.96714039  0.16628795  0.91910853    -0.01400
C776        C  0.98115590  0.15386315  0.95297186    -0.01400
C777        C  0.95149520  0.15137526  0.98166096     0.08500
C778        C  0.91965115  0.18312560  0.97861250    -0.01600
Br779      Br  0.91482350  0.22534961  0.01436982    -0.00200
Br780      Br  0.85450958  0.22961140  0.94039398    -0.00300
Br781      Br  0.04201020  0.15050135  0.95713811    -0.00200
Br782      Br  0.00235383  0.15844643  0.87821226    -0.00200
C783        C  0.89190421  0.14297950  0.05542398    -0.01300
C784        C  0.93646345  0.13585255  0.04877144     0.08300
C785        C  0.96391671  0.15309988  0.07574466    -0.01400
C786        C  0.94956680  0.18562976  0.09729672    -0.01400
C787        C  0.90736712  0.18486022  0.10741665     0.08500
C788        C  0.87850144  0.16203544  0.08694728    -0.01600
Br789      Br  0.81958309  0.16128235  0.10023289    -0.00200
Br790      Br  0.84665165  0.13617816  0.02148825    -0.00300
Br791      Br  0.99005462  0.22069477  0.12179837    -0.00200
Br792      Br  0.99918376  0.11963333  0.10763066    -0.00200
C793        C  0.07663691  0.11897589  0.44693845    -0.01300
C794        C  0.03817445  0.12277588  0.46701646     0.08300
C795        C  0.01274542  0.15928588  0.45831105    -0.01400
C796        C  0.02005356  0.18310553  0.42698564    -0.01400
C797        C  0.05221085  0.17141451  0.40388453     0.08500
C798        C  0.08127639  0.14057031  0.41457480    -0.01600
Br799      Br  0.12973834  0.12958707  0.38495245    -0.00200
Br800      Br  0.12831548  0.09192204  0.46295804    -0.00300
Br801      Br  0.98300536  0.22893725  0.41351391    -0.00200
Br802      Br  0.96609105  0.17726938  0.48736957    -0.00200
C803        C  0.01815127  0.09567163  0.56865541    -0.01300
C804        C  0.02782132  0.11619628  0.53525501     0.08300
C805        C  0.04305497  0.15935532  0.53886583    -0.01400
C806        C  0.03813700  0.18171916  0.57058387    -0.01400
C807        C  0.02735160  0.16045107  0.60162717     0.08500
C808        C  0.01508744  0.11839656  0.60016989    -0.01600
Br809      Br  0.99295874  0.09224525  0.64284432    -0.00200
Br810      Br  0.01635437  0.03558855  0.57734127    -0.00300
Br811      Br  0.04951580  0.24170164  0.57230974    -0.00200
Br812      Br  0.08510359  0.18605090  0.50890056    -0.00200
C813        C  0.90153895  0.06373875  0.46472632    -0.01300
C814        C  0.89340339  0.02856538  0.48978556     0.08300
C815        C  0.93222333  0.01724334  0.50404749    -0.01400
C816        C  0.95622270  0.05111248  0.51745666    -0.01400
C817        C  0.97574142  0.07594392  0.49157582     0.08500
C818        C  0.94449137  0.08253357  0.46242073    -0.01600
Br819      Br  0.95783017  0.10289260  0.41558560    -0.00200
Br820      Br  0.86000676  0.08659910  0.43213827    -0.00300
Br821      Br  0.92605655  0.08498753  0.55127368    -0.00200
Br822      Br  0.95881569  0.98703651  0.46689871    -0.00200
C823        C  0.76383123  0.03675669  0.42962505    -0.01300
C824        C  0.78159506  0.02746426  0.39706224     0.08300
C825        C  0.81706562  0.00142232  0.39610294    -0.01400
C826        C  0.83822424  0.98895498  0.42759088    -0.01400
C827        C  0.82293911  0.00044159  0.46207388     0.08500
C828        C  0.78165726  0.02067551  0.46148556    -0.01600
Br829      Br  0.74287818  0.02529060  0.50045876    -0.00200
Br830      Br  0.71683564  0.07593204  0.43051322    -0.00300
Br831      Br  0.88628779  0.95383088  0.41942676    -0.00200
Br832      Br  0.83714395  0.98368553  0.35034697    -0.00200
C833        C  0.82697479  0.05445735  0.54355589    -0.01300
C834        C  0.82819103  0.01184773  0.53110096     0.08300
C835        C  0.80665416  0.98185568  0.55353282    -0.01400
C836        C  0.79700461  0.99073172  0.58882551    -0.01400
C837        C  0.80081458  0.03169596  0.60159926     0.08500
C838        C  0.81498851  0.06375553  0.57865714    -0.01600
Br839      Br  0.81472232  0.12143583  0.59479079    -0.00200
Br840      Br  0.82728169  0.10200549  0.51183664    -0.00300
Br841      Br  0.77947367  0.94561842  0.62042825    -0.00200
Br842      Br  0.77666376  0.93417150  0.53561291    -0.00200
C843        C  0.91944186  0.90256727  0.54327383    -0.01300
C844        C  0.91154918  0.86641207  0.52170766     0.08300
C845        C  0.87201389  0.87031575  0.50463331    -0.01400
C846        C  0.85732760  0.90981941  0.49079183    -0.01400
C847        C  0.87042245  0.94931516  0.50661775     0.08500
C848        C  0.89764829  0.94194881  0.53726926    -0.01600
Br849      Br  0.90357858  0.98273678  0.57516031    -0.00200
Br850      Br  0.95536736  0.89993029  0.58460337    -0.00300
Br851      Br  0.80979129  0.90232424  0.45882850    -0.00200
Br852      Br  0.82890621  0.84385623  0.53247450    -0.00200
C853        C  0.88906374  0.78896916  0.47154789    -0.01300
C854        C  0.93128196  0.80092722  0.48175311     0.08300
C855        C  0.96234137  0.79266066  0.45493177    -0.01400
C856        C  0.95017296  0.78720171  0.41923956    -0.01400
C857        C  0.90745964  0.78659246  0.40939232     0.08500
C858        C  0.87690650  0.78750797  0.43571873    -0.01600
Br859      Br  0.81797246  0.78140371  0.42286822    -0.00200
Br860      Br  0.85227027  0.75590056  0.50148454    -0.00300
Br861      Br  0.99236291  0.78270793  0.38274412    -0.00200
Br862      Br  0.02150784  0.78249427  0.46401478    -0.00200
C863        C  0.92801706  0.81038336  0.58509804    -0.01300
C864        C  0.93330565  0.79334388  0.55122341     0.08300
C865        C  0.92863021  0.74804218  0.55053797    -0.01400
C866        C  0.90977388  0.72678370  0.57985058    -0.01400
C867        C  0.89225671  0.75045879  0.60749873     0.08500
C868        C  0.89574440  0.79454835  0.60572859    -0.01600
Br869      Br  0.87526311  0.83061915  0.64238595    -0.00200
Br870      Br  0.97700510  0.80952538  0.61637519    -0.00300
Br871      Br  0.90585489  0.66610797  0.58166209    -0.00200
Br872      Br  0.94976393  0.71294037  0.51311560    -0.00200
C873        C  0.03123674  0.90364845  0.50641301    -0.01300
C874        C  0.06890932  0.88927625  0.52215617     0.08300
C875        C  0.06313507  0.85005512  0.54189949    -0.01400
C876        C  0.02435871  0.82620554  0.53920469    -0.01400
C877        C  0.98884872  0.84160093  0.51878401     0.08500
C878        C  0.99866542  0.87641137  0.49700059    -0.01600
Br879      Br  0.96896852  0.88867027  0.45376269    -0.00200
Br880      Br  0.00805508  0.95114408  0.52821164    -0.00300
Br881      Br  0.02860739  0.76699876  0.55240174    -0.00200
Br882      Br  0.10496618  0.82611872  0.57445718    -0.00200
C883        C  0.05639252  0.01990445  0.47297896    -0.01300
C884        C  0.05591021  0.05061335  0.50014971     0.08300
C885        C  0.08885450  0.04376547  0.52637380    -0.01400
C886        C  0.10846521  0.00330254  0.53197833    -0.01400
C887        C  0.09807055  0.96745741  0.51018376     0.08500
C888        C  0.07598903  0.97953559  0.47774143    -0.01600
Br889      Br  0.06747955  0.94127072  0.43839088    -0.00200
Br890      Br  0.03664147  0.03428552  0.42576995    -0.00300
Br891      Br  0.15522460  0.00362565  0.56608098    -0.00200
Br892      Br  0.11570380  0.09086289  0.55091726    -0.00200
C893        C  0.16378368  0.93431977  0.46558791    -0.01300
C894        C  0.13710423  0.90457341  0.48404931     0.08300
C895        C  0.13107921  0.86516440  0.46630368    -0.01400
C896        C  0.14055473  0.86070225  0.43012721    -0.01400
C897        C  0.16163776  0.89289819  0.41151708     0.08500
C898        C  0.17385729  0.92929625  0.42965099    -0.01600
Br899      Br  0.20054084  0.97507695  0.40394216    -0.00200
Br900      Br  0.19246858  0.97999016  0.48866988    -0.00300
Br901      Br  0.12629721  0.80873218  0.40639040    -0.00200
Br902      Br  0.12678568  0.81248340  0.49136116    -0.00200
C903        C  0.11939852  0.92117380  0.58777328    -0.01300
C904        C  0.13845359  0.91215352  0.55400942     0.08300
C905        C  0.18168553  0.89624601  0.55639466    -0.01400
C906        C  0.20247671  0.89120987  0.58964278    -0.01400
C907        C  0.18192320  0.90074370  0.62085908     0.08500
C908        C  0.14188012  0.91800623  0.61976597    -0.01600
Br909      Br  0.11899871  0.93946011  0.66363063    -0.00200
Br910      Br  0.06232554  0.93681387  0.59506739    -0.00300
Br911      Br  0.25983049  0.87031854  0.59383502    -0.00200
Br912      Br  0.21555396  0.87563340  0.51801991    -0.00200
loop_ 
_geom_bond_atom_site_label_1 
_geom_bond_atom_site_label_2 
_geom_bond_distance 
_geom_bond_site_symmetry_2 
_ccdc_geom_bond_type 
C1          C874   1.632       .  S
C1          C887   1.647       .  S
C1          C894   1.605       .  S
C1          C904   1.606       .  S
C2          C844   1.646       .  S
C2          C854   1.619       .  S
C2          C864   1.593       .  S
C2          C877   1.599       .  S
C3          C814   1.642   1_565  S
C3          C827   1.610   1_565  S
C3          C834   1.609   1_565  S
C3          C847   1.659       .  S
C4          C794   1.592       .  S
C4          C804   1.620       .  S
C4          C817   1.653   1_455  S
C4          C884   1.630       .  S
C5          C757   1.646       .  S
C5          C767   1.594       .  S
C5          C777   1.619   1_554  S
C5          C784   1.624       .  S
C6          C724   1.637       .  S
C6          C734   1.600       .  S
C6          C744   1.631   1_556  S
C6          C754   1.600   1_556  S
C7          C694   1.653   1_556  S
C7          C707   1.629       .  S
C7          C714   1.589   1_556  S
C7          C727   1.625   1_455  S
C8          C674   1.621   1_554  S
C8          C687   1.607       .  S
C8          C697   1.623   1_545  S
C8          C764   1.610       .  S
C9          C634   1.631       .  S
C9          C644   1.655   1_556  S
C9          C657   1.609       .  S
C9          C664   1.594   1_556  S
C10         C604   1.621       .  S
C10         C614   1.630   1_554  S
C10         C627   1.615       .  S
C10         C647   1.640       .  S
C11         C574   1.635       .  S
C11         C584   1.619       .  S
C11         C594   1.628   1_556  S
C11         C637   1.623       .  S
C12         C554   1.604       .  S
C12         C564   1.614   1_556  S
C12         C577   1.656       .  S
C12         C607   1.626   1_556  S
O13          C16   1.264       .  A
O13         Cd18   2.491       .  S
C14          O23   1.262       .  A
C14          O19   1.269       .  A
C14         C120   1.476       .  S
O15          C21   1.264       .  A
O15         Cd18   2.473       .  S
C16          O24   1.264       .  A
C16          C27   1.474       .  S
C17          O22   1.263       .  A
C17          O20   1.268       .  A
C17         C547   1.483       .  S
Cd18         O25   2.447       .  S
Cd18         O24   2.492       .  S
Cd18         O23   2.437       .  S
Cd18         O19   2.539       .  S
Cd18         O22   2.463       .  S
Cd18         O20   2.488       .  S
C21          O25   1.263       .  A
C21          C60   1.461       .  S
O26          C29   1.266       .  A
O26         Cd31   2.499   1_565  S
C27          O36   1.263       .  A
C27          O32   1.263       .  A
O28          C34   1.264       .  A
O28         Cd31   2.457       .  S
C29          O37   1.264       .  A
C29          C81   1.472       .  S
C30          O35   1.268       .  A
C30          O33   1.265       .  A
C30         C837   1.491       .  S
Cd31         O38   2.486       .  S
Cd31         O37   2.472   1_545  S
Cd31         O36   2.495       .  S
Cd31         O32   2.499       .  S
Cd31         O35   2.474       .  S
Cd31         O33   2.509       .  S
C34          O38   1.262       .  A
C34          C43   1.464       .  S
O39          C42   1.266       .  A
O39         Cd44   2.457       .  S
C40          O49   1.264       .  A
C40          O45   1.266       .  A
C40         C159   1.462       .  S
O41          C47   1.267       .  A
O41         Cd44   2.446       .  S
C42          O50   1.265       .  A
C42          C55   1.452       .  S
C43          O48   1.267       .  A
C43          O46   1.262       .  A
Cd44         O51   2.473       .  S
Cd44         O50   2.394       .  S
Cd44         O49   2.444       .  S
Cd44         O45   2.467       .  S
Cd44         O48   2.491       .  S
Cd44         O46   2.440       .  S
C47          O51   1.263       .  A
C47         C774   1.471       .  S
O52          C55   1.265       .  A
O52         Cd57   2.477       .  S
C53          O62   1.264       .  A
C53          O58   1.266       .  A
C53         C105   1.467       .  S
O54          C60   1.264       .  A
O54         Cd57   2.443       .  S
C55          O63   1.259       .  A
C56          O61   1.262       .  A
C56          O59   1.267       .  A
C56         C587   1.486       .  S
Cd57         O64   2.473       .  S
Cd57         O63   2.403       .  S
Cd57         O62   2.456       .  S
Cd57         O58   2.484       .  S
Cd57         O61   2.450       .  S
Cd57         O59   2.490       .  S
C60          O64   1.265       .  A
O65          C68   1.266       .  A
O65         Cd70   2.464       .  S
C66          O75   1.264       .  A
C66          O71   1.266       .  A
C66         C211   1.452       .  S
O67          C73   1.266       .  A
O67         Cd70   2.469       .  S
C68          O76   1.264       .  A
C68          C79   1.457       .  S
C69          O74   1.266       .  A
C69          O72   1.263       .  A
C69         C654   1.466       .  S
Cd70         O77   2.469       .  S
Cd70         O76   2.416       .  S
Cd70         O75   2.414       .  S
Cd70         O71   2.446       .  S
Cd70         O74   2.398       .  S
Cd70         O72   2.483       .  S
C73          O77   1.266       .  A
C73         C112   1.467       .  S
O78          C81   1.266       .  A
O78         Cd83   2.492       .  S
C79          O88   1.261       .  A
C79          O84   1.264       .  A
O80          C86   1.263       .  A
O80         Cd83   2.483       .  S
C81          O89   1.265       .  A
C82          O87   1.263       .  A
C82          O85   1.267       .  A
C82         C737   1.485       .  S
Cd83         O90   2.465       .  S
Cd83         O89   2.470       .  S
Cd83         O88   2.431       .  S
Cd83         O84   2.478       .  S
Cd83         O87   2.458       .  S
Cd83         O85   2.505       .  S
C86          O90   1.266       .  A
C86          C95   1.467       .  S
O91          C94   1.262       .  A
O91         Cd96   2.458       .  S
C92         O101   1.265       .  A
C92          O97   1.268       .  A
C92         C185   1.475       .  S
O93          C99   1.263       .  A
O93         Cd96   2.465       .  S
C94         O102   1.264       .  A
C94         C107   1.462       .  S
C95         O100   1.262       .  A
C95          O98   1.266       .  A
Cd96        O103   2.482       .  S
Cd96        O102   2.471       .  S
Cd96        O101   2.465       .  S
Cd96         O97   2.506       .  S
Cd96        O100   2.468       .  S
Cd96         O98   2.487       .  S
C99         O103   1.266       .  A
C99         C867   1.478       .  S
O104        C107   1.265       .  A
O104       Cd109   2.455       .  S
C105        O114   1.263       .  A
C105        O110   1.263       .  A
O106        C112   1.265       .  A
O106       Cd109   2.474       .  S
C107        O115   1.264       .  A
C108        O113   1.265       .  A
C108        O111   1.263       .  A
C108        C534   1.476       .  S
Cd109       O116   2.472       .  S
Cd109       O115   2.463       .  S
Cd109       O114   2.466       .  S
Cd109       O110   2.488       .  S
Cd109       O113   2.476       .  S
Cd109       O111   2.471       .  S
C112        O116   1.264       .  A
O117        C120   1.267       .  A
O117       Cd122   2.543       .  S
C118        O127   1.265       .  A
C118        O123   1.267       .  A
C118        C131   1.472       .  S
O119        C125   1.265       .  A
O119       Cd122   2.499       .  S
C120        O128   1.262       .  A
C121        O126   1.262       .  A
C121        O124   1.264       .  A
C121        C151   1.466       .  S
Cd122       O129   2.476       .  S
Cd122       O128   2.450       .  S
Cd122       O127   2.477       .  S
Cd122       O123   2.482       .  S
Cd122       O126   2.466       .  S
Cd122       O124   2.489       .  S
C125        O129   1.266       .  A
C125        C557   1.496       .  S
O130        C133   1.265   1_545  A
O130       Cd135   2.503       .  S
C131        O140   1.266       .  A
C131        O136   1.263       .  A
O132        C138   1.265       .  A
O132       Cd135   2.480       .  S
C133        O141   1.263   1_565  A
C133        C196   1.468       .  S
C134        O139   1.264       .  A
C134        O137   1.266       .  A
C134        C677   1.483       .  S
Cd135       O142   2.477       .  S
Cd135       O141   2.452       .  S
Cd135       O140   2.494       .  S
Cd135       O136   2.479       .  S
Cd135       O139   2.469       .  S
Cd135       O137   2.514       .  S
C138        O142   1.265       .  A
C138        C164   1.469       .  S
O143        C146   1.263       .  A
O143       Cd148   2.467       .  S
C144        O153   1.264       .  A
C144        O149   1.265       .  A
C144        C170   1.473       .  S
O145        C151   1.263       .  A
O145       Cd148   2.485       .  S
C146        O154   1.264       .  A
C146        C157   1.461       .  S
C147        O152   1.263       .  A
C147        O150   1.268       .  A
C147        C524   1.484       .  S
Cd148       O155   2.466       .  S
Cd148       O154   2.458       .  S
Cd148       O153   2.465       .  S
Cd148       O149   2.506       .  S
Cd148       O152   2.471       .  S
Cd148       O150   2.492       .  S
C151        O155   1.263       .  A
O156        C159   1.266   1_455  A
O156       Cd161   2.477       .  S
C157        O166   1.262       .  A
C157        O162   1.266       .  A
O158        C164   1.265       .  A
O158       Cd161   2.479       .  S
C159        O167   1.264   1_655  A
C160        O165   1.265       .  A
C160        O163   1.267       .  A
C160        C807   1.480       .  S
Cd161       O168   2.472       .  S
Cd161       O167   2.441       .  S
Cd161       O166   2.444       .  S
Cd161       O162   2.474       .  S
Cd161       O165   2.409       .  S
Cd161       O163   2.508       .  S
C164        O168   1.265       .  A
O169        C172   1.263       .  A
O169       Cd174   2.484       .  S
C170        O179   1.261       .  A
C170        O175   1.267       .  A
O171        C177   1.263       .  A
O171       Cd174   2.483       .  S
C172        O180   1.264       .  A
C172        C183   1.473       .  S
C173        O178   1.265       .  A
C173        O176   1.269       .  A
C173        C617   1.489       .  S
Cd174       O181   2.461       .  S
Cd174       O180   2.498       .  S
Cd174       O179   2.463       .  S
Cd174       O175   2.522       .  S
Cd174       O178   2.440       .  S
Cd174       O176   2.525       .  S
C177        O181   1.264       .  A
C177        C212   1.465       .  S
O182        C185   1.265   1_455  A
O182       Cd187   2.514       .  S
C183        O192   1.265       .  A
C183        O188   1.264       .  A
O184        C190   1.265       .  A
O184       Cd187   2.468       .  S
C185        O193   1.263   1_655  A
C186        O191   1.262       .  A
C186        O189   1.265       .  A
C186        C704   1.481       .  S
Cd187       O194   2.472       .  S
Cd187       O193   2.478       .  S
Cd187       O192   2.493       .  S
Cd187       O188   2.483       .  S
Cd187       O191   2.472       .  S
Cd187       O189   2.497       .  S
C190        O194   1.267       .  A
C190        C199   1.468       .  S
O195        C198   1.265       .  A
O195       Cd200   2.467       .  S
C196        O205   1.262       .  A
C196        O201   1.266       .  A
O197        C203   1.265       .  A
O197       Cd200   2.414       .  S
C198        O206   1.262       .  A
C198        C209   1.457       .  S
C199        O204   1.264       .  A
C199        O202   1.266       .  A
Cd200       O207   2.489       .  S
Cd200       O206   2.428       .  S
Cd200       O205   2.452       .  S
Cd200       O201   2.502       .  S
Cd200       O204   2.473       .  S
Cd200       O202   2.474       .  S
C203        O207   1.266       .  A
C203        C907   1.472       .  S
O208        C211   1.265       .  A
O208       Cd213   2.445       .  S
C209        O218   1.264       .  A
C209        O214   1.264       .  A
O210        C216   1.265       .  A
O210       Cd213   2.432       .  S
C211        O219   1.263       .  A
C212        O217   1.264       .  A
C212        O215   1.267       .  A
Cd213       O220   2.464       .  S
Cd213       O219   2.425       .  S
Cd213       O218   2.434       .  S
Cd213       O214   2.461       .  S
Cd213       O217   2.458       .  S
Cd213       O215   2.472       .  S
C216        O220   1.264       .  A
C216        C517   1.473       .  S
C221        C484   1.621       .  S
C221        C494   1.643       .  S
C221        C507   1.624       .  S
C221        C537   1.613       .  S
C222        C464   1.632       .  S
C222        C474   1.604       .  S
C222        C487   1.623       .  S
C222        C514   1.585       .  S
C223        C444   1.634       .  S
C223        C457   1.590       .  S
C223        C497   1.652       .  S
C223        C544   1.613       .  S
C224        C434   1.587       .  S
C224        C447   1.644       .  S
C224        C467   1.583       .  S
C224        C527   1.617       .  S
O225        C228   1.266       .  A
O225       Cd230   2.499       .  S
C226        O235   1.264       .  A
C226        O231   1.267       .  A
C226        C395   1.472   1_565  S
O227        C233   1.266       .  A
O227       Cd230   2.502       .  S
C228        O236   1.264       .  A
C228        C239   1.471       .  S
C229        O234   1.266       .  A
C229        O232   1.267       .  A
C229        C747   1.490       .  S
Cd230       O237   2.490       .  S
Cd230       O236   2.462       .  S
Cd230       O235   2.460       .  S
Cd230       O231   2.508       .  S
Cd230       O234   2.476       .  S
Cd230       O232   2.510       .  S
C233        O237   1.261       .  A
C233        C272   1.474       .  S
O238        C241   1.268       .  A
O238       Cd243   2.518       .  S
C239        O248   1.263       .  A
C239        O244   1.266       .  A
O240        C246   1.263       .  A
O240       Cd243   2.469       .  S
C241        O249   1.263       .  A
C241        C319   1.474       .  S
C242        O247   1.263       .  A
C242        O245   1.267       .  A
C242        C667   1.482       .  S
Cd243       O250   2.466       .  S
Cd243       O249   2.449       .  S
Cd243       O248   2.466       .  S
Cd243       O244   2.503       .  S
Cd243       O247   2.456       .  S
Cd243       O245   2.479       .  S
C246        O250   1.264       .  A
C246        C259   1.463       .  S
O251        C254   1.268       .  A
O251       Cd256   2.491       .  S
C252        O261   1.262       .  A
C252        O257   1.263       .  A
C252        C267   1.457       .  S
O253        C259   1.262       .  A
O253       Cd256   2.463       .  S
C254        O262   1.263       .  A
C254        C423   1.464       .  S
C255        O260   1.264       .  A
C255        O258   1.268       .  A
C255        C504   1.485       .  S
Cd256       O263   2.473       .  S
Cd256       O262   2.424       .  S
Cd256       O261   2.456       .  S
Cd256       O257   2.451       .  S
Cd256       O260   2.418       .  S
Cd256       O258   2.488       .  S
C259        O263   1.263       .  A
O264        C267   1.262       .  A
O264       Cd269   2.444       .  S
C265        O274   1.266       .  A
C265        O270   1.263       .  A
C265        C291   1.457       .  S
O266        C272   1.267       .  A
O266       Cd269   2.492       .  S
C267        O275   1.265       .  A
C268        O273   1.266       .  A
C268        O271   1.263       .  A
C268        C857   1.485       .  S
Cd269       O276   2.485       .  S
Cd269       O275   2.462       .  S
Cd269       O274   2.436       .  S
Cd269       O270   2.452       .  S
Cd269       O273   2.507       .  S
Cd269       O271   2.463       .  S
C272        O276   1.263       .  A
O277        C280   1.266       .  A
O277       Cd282   2.500       .  S
C278        O287   1.261       .  A
C278        O283   1.262       .  A
C278        C293   1.460       .  S
O279        C285   1.263       .  A
O279       Cd282   2.465       .  S
C280        O288   1.264       .  A
C280        C332   1.473       .  S
C281        O286   1.263       .  A
C281        O284   1.269       .  A
C281        C624   1.479       .  S
Cd282       O289   2.474       .  S
Cd282       O288   2.467       .  S
Cd282       O287   2.446       .  S
Cd282       O283   2.486       .  S
Cd282       O286   2.458       .  S
Cd282       O284   2.473       .  S
C285        O289   1.264       .  A
C285        C324   1.464       .  S
O290        C293   1.266       .  A
O290       Cd295   2.483       .  S
C291        O300   1.262   1_655  A
C291        O296   1.268       .  A
O292        C298   1.265       .  A
O292       Cd295   2.478       .  S
C293        O301   1.262       .  A
C294        O299   1.266       .  A
C294        O297   1.267       .  A
C294        C717   1.472       .  S
Cd295       O302   2.463       .  S
Cd295       O301   2.426       .  S
Cd295       O300   2.419       .  S
Cd295       O296   2.469   1_455  S
Cd295       O299   2.415       .  S
Cd295       O297   2.492       .  S
C298        O302   1.265       .  A
C298        C311   1.468       .  S
O303        C306   1.264       .  A
O303       Cd308   2.495       .  S
C304        O313   1.265       .  A
C304        O309   1.266       .  A
C304        C369   1.475       .  S
O305        C311   1.262       .  A
O305       Cd308   2.481       .  S
C306        O314   1.264       .  A
C306        C317   1.472       .  S
C307        O312   1.265       .  A
C307        O310   1.267       .  A
C307        C897   1.494       .  S
Cd308       O315   2.488       .  S
Cd308       O314   2.480       .  S
Cd308       O313   2.473       .  S
Cd308       O309   2.508       .  S
Cd308       O312   2.499       .  S
Cd308       O310   2.488       .  S
C311        O315   1.264       .  A
O316        C319   1.267       .  A
O316       Cd321   2.521       .  S
C317        O326   1.263       .  A
C317        O322   1.265       .  A
O318        C324   1.263       .  A
O318       Cd321   2.476       .  S
C319        O327   1.263       .  A
C320        O325   1.266       .  A
C320        O323   1.268       .  A
C320        C477   1.490       .  S
Cd321       O328   2.470       .  S
Cd321       O327   2.456       .  S
Cd321       O326   2.476       .  S
Cd321       O322   2.499       .  S
Cd321       O325   2.474       .  S
Cd321       O323   2.478       .  S
C324        O328   1.262       .  A
O329        C332   1.266       .  A
O329       Cd334   2.501       .  S
C330        O339   1.263       .  A
C330        O335   1.263       .  A
C330        C345   1.471       .  S
O331        C337   1.264       .  A
O331       Cd334   2.467       .  S
C332        O340   1.264       .  A
C333        O338   1.265       .  A
C333        O336   1.266       .  A
C333        C437   1.480       .  S
Cd334       O341   2.478       .  S
Cd334       O340   2.471       .  S
Cd334       O339   2.490       .  S
Cd334       O335   2.483       .  S
Cd334       O338   2.476       .  S
Cd334       O336   2.483       .  S
C337        O341   1.263       .  A
C337        C363   1.467       .  S
O342        C345   1.264       .  A
O342       Cd347   2.475       .  S
C343        O352   1.260   1_655  A
C343        O348   1.267   1_655  A
C343        C410   1.467       .  S
O344        C350   1.265       .  A
O344       Cd347   2.480       .  S
C345        O353   1.266       .  A
C346        O351   1.264       .  A
C346        O349   1.267       .  A
C346        C797   1.484       .  S
Cd347       O354   2.476       .  S
Cd347       O353   2.487       .  S
Cd347       O352   2.427       .  S
Cd347       O348   2.525       .  S
Cd347       O351   2.440       .  S
Cd347       O349   2.517       .  S
C350        O354   1.263       .  A
C350        C376   1.468       .  S
O355        C358   1.266       .  A
O355       Cd360   2.483       .  S
C356        O365   1.264       .  A
C356        O361   1.265       .  A
C356        C371   1.466       .  S
O357        C363   1.266       .  A
O357       Cd360   2.485       .  S
C358        O366   1.263       .  A
C358        C384   1.462       .  S
C359        O364   1.265       .  A
C359        O362   1.266       .  A
C359        C567   1.479       .  S
Cd360       O367   2.465       .  S
Cd360       O366   2.431       .  S
Cd360       O365   2.453       .  S
Cd360       O361   2.479       .  S
Cd360       O364   2.423       .  S
Cd360       O362   2.523       .  S
C363        O367   1.263       .  A
O368        C371   1.266       .  A
O368       Cd373   2.488       .  S
C369        O378   1.263   1_565  A
C369        O374   1.267   1_565  A
O370        C376   1.266       .  A
O370       Cd373   2.478       .  S
C371        O379   1.263       .  A
C372        O377   1.266       .  A
C372        O375   1.265       .  A
C372        C684   1.479       .  S
Cd373       O380   2.473       .  S
Cd373       O379   2.451       .  S
Cd373       O378   2.467       .  S
Cd373       O374   2.512       .  S
Cd373       O377   2.459       .  S
Cd373       O375   2.499       .  S
C376        O380   1.264       .  A
O381        C384   1.267       .  A
O381       Cd386   2.483       .  S
C382        O391   1.263       .  A
C382        O387   1.264       .  A
C382        C397   1.468       .  S
O383        C389   1.262       .  A
O383       Cd386   2.454       .  S
C384        O392   1.263       .  A
C385        O390   1.262       .  A
C385        O388   1.267       .  A
C385        C454   1.482       .  S
Cd386       O393   2.475       .  S
Cd386       O392   2.431       .  S
Cd386       O391   2.475       .  S
Cd386       O387   2.484       .  S
Cd386       O390   2.452       .  S
Cd386       O388   2.482       .  S
C389        O393   1.266       .  A
C389        C428   1.464       .  S
O394        C397   1.264       .  A
O394       Cd399   2.484       .  S
C395        O404   1.264       .  A
C395        O400   1.268       .  A
O396        C402   1.264       .  A
O396       Cd399   2.477       .  S
C397        O405   1.263       .  A
C398        O403   1.264       .  A
C398        O401   1.266       .  A
C398        C824   1.488       .  S
Cd399       O406   2.468       .  S
Cd399       O405   2.470       .  S
Cd399       O404   2.458       .  S
Cd399       O400   2.505       .  S
Cd399       O403   2.464       .  S
Cd399       O401   2.499       .  S
C402        O406   1.264       .  A
C402        C411   1.466       .  S
O407        C410   1.266       .  A
O407       Cd412   2.521       .  S
C408        O417   1.262       .  A
C408        O413   1.265       .  A
C408        C421   1.461       .  S
O409        C415   1.264       .  A
O409       Cd412   2.434       .  S
C410        O418   1.262       .  A
C411        O416   1.263       .  A
C411        O414   1.265       .  A
Cd412       O419   2.495       .  S
Cd412       O418   2.429       .  S
Cd412       O417   2.452       .  S
Cd412       O413   2.475       .  S
Cd412       O416   2.463       .  S
Cd412       O414   2.481       .  S
C415        O419   1.268       .  A
C415        C787   1.480       .  S
O420        C423   1.265       .  A
O420       Cd425   2.491       .  S
C421        O430   1.264       .  A
C421        O426   1.263       .  A
O422        C428   1.262       .  A
O422       Cd425   2.478       .  S
C423        O431   1.263       .  A
C424        O429   1.265       .  A
C424        O427   1.267       .  A
C424        C597   1.480       .  S
Cd425       O432   2.463       .  S
Cd425       O431   2.441       .  S
Cd425       O430   2.454       .  S
Cd425       O426   2.462       .  S
Cd425       O429   2.435       .  S
Cd425       O427   2.499       .  S
C428        O432   1.264       .  A
C433        C434   1.445       .  A
C433        C438   1.417       .  A
C433       Br440   1.944       .  S
C434        C435   1.449       .  A
C435        C436   1.409       .  A
C435       Br442   1.938       .  S
C436        C437   1.396       .  A
C436       Br441   1.941       .  S
C437        C438   1.403       .  A
C438       Br439   1.931       .  S
C443        C444   1.428       .  A
C443        C448   1.429       .  A
C443       Br450   1.934       .  S
C444        C445   1.438       .  A
C445        C446   1.417       .  A
C445       Br452   1.955       .  S
C446        C447   1.451       .  A
C446       Br451   1.948       .  S
C447        C448   1.451       .  A
C448       Br449   1.936       .  S
C453        C454   1.400       .  A
C453        C458   1.410       .  A
C453       Br460   1.942       .  S
C454        C455   1.404       .  A
C455        C456   1.414       .  A
C455       Br462   1.937       .  S
C456        C457   1.451       .  A
C456       Br461   1.948       .  S
C457        C458   1.450       .  A
C458       Br459   1.939       .  S
C463        C464   1.420       .  A
C463        C468   1.383       .  A
C463       Br470   1.922       .  S
C464        C465   1.462       .  A
C465        C466   1.432       .  A
C465       Br472   1.946       .  S
C466        C467   1.423       .  A
C466       Br471   1.946       .  S
C467        C468   1.413       .  A
C468       Br469   1.913       .  S
C473        C474   1.434       .  A
C473        C478   1.413       .  A
C473       Br480   1.919       .  S
C474        C475   1.448       .  A
C475        C476   1.417       .  A
C475       Br482   1.922       .  S
C476        C477   1.403       .  A
C476       Br481   1.940       .  S
C477        C478   1.404       .  A
C478       Br479   1.938       .  S
C483        C484   1.452       .  A
C483        C488   1.428       .  A
C483       Br490   1.944       .  S
C484        C485   1.449       .  A
C485        C486   1.427       .  A
C485       Br492   1.936       .  S
C486        C487   1.436       .  A
C486       Br491   1.961       .  S
C487        C488   1.431       .  A
C488       Br489   1.957       .  S
C493        C494   1.446       .  A
C493        C498   1.415       .  A
C493       Br500   1.918       .  S
C494        C495   1.449       .  A
C495        C496   1.451       .  A
C495       Br502   1.941       .  S
C496        C497   1.465       .  A
C496       Br501   1.966       .  S
C497        C498   1.414       .  A
C498       Br499   1.946       .  S
C503        C504   1.407       .  A
C503        C508   1.425       .  A
C503       Br510   1.939       .  S
C504        C505   1.399       .  A
C505        C506   1.397       .  A
C505       Br512   1.940       .  S
C506        C507   1.451       .  A
C506       Br511   1.952       .  S
C507        C508   1.450       .  A
C508       Br509   1.923       .  S
C513        C514   1.445       .  A
C513        C518   1.403       .  A
C513       Br520   1.916       .  S
C514        C515   1.452       .  A
C515        C516   1.417       .  A
C515       Br522   1.937       .  S
C516        C517   1.400       .  A
C516       Br521   1.940       .  S
C517        C518   1.394       .  A
C518       Br519   1.942       .  S
C523        C524   1.415       .  A
C523        C528   1.431       .  A
C523       Br530   1.931       .  S
C524        C525   1.404       .  A
C525        C526   1.386       .  A
C525       Br532   1.927       .  S
C526        C527   1.412       .  A
C526       Br531   1.945       .  S
C527        C528   1.454       .  A
C528       Br529   1.939       .  S
C533        C534   1.394       .  A
C533        C538   1.406       .  A
C533       Br540   1.934       .  S
C534        C535   1.402       .  A
C535        C536   1.421       .  A
C535       Br542   1.937       .  S
C536        C537   1.448       .  A
C536       Br541   1.923       .  S
C537        C538   1.448       .  A
C538       Br539   1.947       .  S
C543        C544   1.449       .  A
C543        C548   1.417       .  A
C543       Br550   1.911       .  S
C544        C545   1.456       .  A
C545        C546   1.417       .  A
C545       Br552   1.936       .  S
C546        C547   1.396       .  A
C546       Br551   1.942       .  S
C547        C548   1.395       .  A
C548       Br549   1.944       .  S
C553        C554   1.445       .  A
C553        C558   1.418       .  A
C553       Br560   1.919       .  S
C554        C555   1.444       .  A
C555        C556   1.416       .  A
C555       Br562   1.919       .  S
C556        C557   1.404       .  A
C556       Br561   1.941       .  S
C557        C558   1.406       .  A
C558       Br559   1.942       .  S
C563        C564   1.468       .  A
C563        C568   1.430       .  A
C563       Br570   1.940   1_554  S
C564        C565   1.451       .  A
C565        C566   1.398       .  A
C565       Br572   1.911       .  S
C566        C567   1.380       .  A
C566       Br571   1.944       .  S
C567        C568   1.395       .  A
C568       Br569   1.938       .  S
C573        C574   1.427   1_554  A
C573        C578   1.436       .  A
C573       Br580   1.936       .  S
C574        C575   1.436       .  A
C575        C576   1.436       .  A
C575       Br582   1.936       .  S
C576        C577   1.453       .  A
C576       Br581   1.934       .  S
C577        C578   1.450   1_556  A
C578       Br579   1.936       .  S
C583        C584   1.434       .  A
C583        C588   1.384       .  A
C583       Br590   1.944       .  S
C584        C585   1.461       .  A
C585        C586   1.433       .  A
C585       Br592   1.923   1_556  S
C586        C587   1.411       .  A
C586       Br591   1.936       .  S
C587        C588   1.399       .  A
C588       Br589   1.927       .  S
C593        C594   1.433       .  A
C593        C598   1.395       .  A
C593       Br600   1.910       .  S
C594        C595   1.453       .  A
C595        C596   1.427       .  A
C595       Br602   1.905       .  S
C596        C597   1.402       .  A
C596       Br601   1.938       .  S
C597        C598   1.393       .  A
C598       Br599   1.934       .  S
C603        C604   1.414   1_556  A
C603        C608   1.399       .  A
C603       Br610   1.919       .  S
C604        C605   1.458       .  A
C605        C606   1.462       .  A
C605       Br612   1.942       .  S
C606        C607   1.460       .  A
C606       Br611   1.947       .  S
C607        C608   1.394   1_554  A
C608       Br609   1.899   1_556  S
C613        C614   1.427       .  A
C613        C618   1.394       .  A
C613       Br620   1.905       .  S
C614        C615   1.457       .  A
C615        C616   1.431       .  A
C615       Br622   1.906       .  S
C616        C617   1.405       .  A
C616       Br621   1.937       .  S
C617        C618   1.394       .  A
C618       Br619   1.931       .  S
C623        C624   1.394       .  A
C623        C628   1.385       .  A
C623       Br630   1.930       .  S
C624        C625   1.406       .  A
C625        C626   1.430       .  A
C625       Br632   1.934       .  S
C626        C627   1.460       .  A
C626       Br631   1.924   1_554  S
C627        C628   1.438       .  A
C628       Br629   1.946       .  S
C633        C634   1.397   1_554  A
C633        C638   1.399       .  A
C633       Br640   1.897   1_554  S
C634        C635   1.459       .  A
C635        C636   1.461       .  A
C635       Br642   1.946       .  S
C636        C637   1.456       .  A
C636       Br641   1.942       .  S
C637        C638   1.416   1_556  A
C638       Br639   1.918       .  S
C643        C644   1.451   1_556  A
C643        C648   1.438       .  A
C643       Br650   1.936       .  S
C644        C645   1.451       .  A
C645        C646   1.435       .  A
C645       Br652   1.938       .  S
C646        C647   1.438       .  A
C646       Br651   1.929       .  S
C647        C648   1.428   1_554  A
C648       Br649   1.936       .  S
C653        C654   1.377       .  A
C653        C658   1.397       .  A
C653       Br660   1.948       .  S
C654        C655   1.388       .  A
C655        C656   1.424       .  A
C655       Br662   1.942       .  S
C656        C657   1.472       .  A
C656       Br661   1.944   1_556  S
C657        C658   1.447       .  A
C658       Br659   1.898       .  S
C663        C664   1.447       .  A
C663        C668   1.414       .  A
C663       Br670   1.921       .  S
C664        C665   1.446       .  A
C665        C666   1.413       .  A
C665       Br672   1.918       .  S
C666        C667   1.402       .  A
C666       Br671   1.945       .  S
C667        C668   1.399       .  A
C668       Br669   1.939       .  S
C673        C674   1.452       .  A
C673        C678   1.426       .  A
C673       Br680   1.923   1_556  S
C674        C675   1.427       .  A
C675        C676   1.405       .  A
C675       Br682   1.889   1_545  S
C676        C677   1.392       .  A
C676       Br681   1.938   1_545  S
C677        C678   1.400       .  A
C678       Br679   1.936       .  S
C683        C684   1.403   1_565  A
C683        C688   1.401       .  A
C683       Br690   1.929       .  S
C684        C685   1.414       .  A
C685        C686   1.422       .  A
C685       Br692   1.923       .  S
C686        C687   1.424       .  A
C686       Br691   1.927       .  S
C687        C688   1.419   1_545  A
C688       Br689   1.925       .  S
C693        C694   1.446       .  A
C693        C698   1.413       .  A
C693       Br700   1.945       .  S
C694        C695   1.447   1_554  A
C695        C696   1.443       .  A
C695       Br702   1.926       .  S
C696        C697   1.431   1_556  A
C696       Br701   1.934       .  S
C697        C698   1.437       .  A
C698       Br699   1.950       .  S
C703        C704   1.409       .  A
C703        C708   1.419       .  A
C703       Br710   1.928       .  S
C704        C705   1.402       .  A
C705        C706   1.401   1_455  A
C705       Br712   1.933   1_455  S
C706        C707   1.427   1_655  A
C706       Br711   1.932       .  S
C707        C708   1.437       .  A
C708       Br709   1.934   1_456  S
C713        C714   1.451       .  A
C713        C718   1.411       .  A
C713       Br720   1.935       .  S
C714        C715   1.435   1_455  A
C715        C716   1.409       .  A
C715       Br722   1.914       .  S
C716        C717   1.396   1_655  A
C716       Br721   1.937       .  S
C717        C718   1.396       .  A
C718       Br719   1.940       .  S
C723        C724   1.430       .  A
C723        C728   1.447   1_556  A
C723       Br730   1.936       .  S
C724        C725   1.431       .  A
C725        C726   1.426       .  A
C725       Br732   1.932       .  S
C726        C727   1.427       .  A
C726       Br731   1.928       .  S
C727        C728   1.444   1_556  A
C728       Br729   1.930       .  S
C733        C734   1.421       .  A
C733        C738   1.387       .  A
C733       Br740   1.940       .  S
C734        C735   1.435       .  A
C735        C736   1.429       .  A
C735       Br742   1.927       .  S
C736        C737   1.418       .  A
C736       Br741   1.929       .  S
C737        C738   1.404       .  A
C738       Br739   1.933       .  S
C743        C744   1.468       .  A
C743        C748   1.427       .  A
C743       Br750   1.929   1_565  S
C744        C745   1.429       .  A
C745        C746   1.398       .  A
C745       Br752   1.920       .  S
C746        C747   1.397       .  A
C746       Br751   1.924       .  S
C747        C748   1.403       .  A
C748       Br749   1.944   1_565  S
C753        C754   1.420   1_545  A
C753        C758   1.423       .  A
C753       Br760   1.933   1_545  S
C754        C755   1.425   1_564  A
C755        C756   1.432       .  A
C755       Br762   1.947       .  S
C756        C757   1.450   1_556  A
C756       Br761   1.908       .  S
C757        C758   1.440       .  A
C758       Br759   1.907       .  S
C763        C764   1.440       .  A
C763        C768   1.437       .  A
C763       Br770   1.915       .  S
C764        C765   1.408   1_554  A
C765        C766   1.376       .  A
C765       Br772   1.870   1_445  S
C766        C767   1.415   1_456  A
C766       Br771   1.929   1_455  S
C767        C768   1.426   1_655  A
C768       Br769   1.949       .  S
C773        C774   1.405       .  A
C773        C778   1.415       .  A
C773       Br780   1.925       .  S
C774        C775   1.395       .  A
C775        C776   1.408       .  A
C775       Br782   1.940   1_655  S
C776        C777   1.447       .  A
C776       Br781   1.937   1_655  S
C777        C778   1.430       .  A
C778       Br779   1.926   1_556  S
C783        C784   1.456       .  A
C783        C788   1.417       .  A
C783       Br790   1.932       .  S
C784        C785   1.449       .  A
C785        C786   1.404       .  A
C785       Br792   1.946       .  S
C786        C787   1.396       .  A
C786       Br791   1.936       .  S
C787        C788   1.401       .  A
C788       Br789   1.939       .  S
C793        C794   1.450       .  A
C793        C798   1.408       .  A
C793       Br800   1.939       .  S
C794        C795   1.445       .  A
C795        C796   1.422       .  A
C795       Br802   1.944   1_455  S
C796        C797   1.404       .  A
C796       Br801   1.931   1_455  S
C797        C798   1.398       .  A
C798       Br799   1.947       .  S
C803        C804   1.453       .  A
C803        C808   1.409       .  A
C803       Br810   1.931       .  S
C804        C805   1.458       .  A
C805        C806   1.415       .  A
C805       Br812   1.947       .  S
C806        C807   1.396       .  A
C806       Br811   1.938       .  S
C807        C808   1.390       .  A
C808       Br809   1.947   1_455  S
C813        C814   1.481       .  A
C813        C818   1.488       .  A
C813       Br820   1.933       .  S
C814        C815   1.385       .  A
C815        C816   1.412       .  A
C815       Br822   1.917   1_545  S
C816        C817   1.400       .  A
C816       Br821   1.944       .  S
C817        C818   1.491       .  A
C818       Br819   1.934       .  S
C823        C824   1.398       .  A
C823        C828   1.419       .  A
C823       Br830   1.942       .  S
C824        C825   1.397       .  A
C825        C826   1.417   1_545  A
C825       Br832   1.946   1_545  S
C826        C827   1.451   1_565  A
C826       Br831   1.919       .  S
C827        C828   1.458       .  A
C828       Br829   1.940       .  S
C833        C834   1.438       .  A
C833        C838   1.424       .  A
C833       Br840   1.918       .  S
C834        C835   1.444   1_545  A
C835        C836   1.409       .  A
C835       Br842   1.914       .  S
C836        C837   1.397   1_565  A
C836       Br841   1.940       .  S
C837        C838   1.407       .  A
C838       Br839   1.936       .  S
C843        C844   1.437       .  A
C843        C848   1.443       .  A
C843       Br850   1.930       .  S
C844        C845   1.410       .  A
C845        C846   1.429       .  A
C845       Br852   1.921       .  S
C846        C847   1.454       .  A
C846       Br851   1.941       .  S
C847        C848   1.458       .  A
C848       Br849   1.954       .  S
C853        C854   1.441       .  A
C853        C858   1.411       .  A
C853       Br860   1.935       .  S
C854        C855   1.450       .  A
C855        C856   1.418       .  A
C855       Br862   1.930   1_655  S
C856        C857   1.401       .  A
C856       Br861   1.942       .  S
C857        C858   1.399       .  A
C858       Br859   1.936       .  S
C863        C864   1.413       .  A
C863        C868   1.384       .  A
C863       Br870   1.945       .  S
C864        C865   1.445       .  A
C865        C866   1.429       .  A
C865       Br872   1.941       .  S
C866        C867   1.416       .  A
C866       Br871   1.929       .  S
C867        C868   1.403       .  A
C868       Br869   1.930       .  S
C873        C874   1.404       .  A
C873        C878   1.392   1_455  A
C873       Br880   1.882       .  S
C874        C875   1.456       .  A
C875        C876   1.446       .  A
C875       Br882   1.951       .  S
C876        C877   1.442   1_455  A
C876       Br881   1.942       .  S
C877        C878   1.407       .  A
C878       Br879   1.920       .  S
C883        C884   1.428       .  A
C883        C888   1.433   1_545  A
C883       Br890   1.941       .  S
C884        C885   1.450       .  A
C885        C886   1.439       .  A
C885       Br892   1.959       .  S
C886        C887   1.450   1_545  A
C886       Br891   1.958       .  S
C887        C888   1.458       .  A
C888       Br889   1.953       .  S
C893        C894   1.445       .  A
C893        C898   1.415       .  A
C893       Br900   1.925       .  S
C894        C895   1.439       .  A
C895        C896   1.417       .  A
C895       Br902   1.918       .  S
C896        C897   1.406       .  A
C896       Br901   1.939       .  S
C897        C898   1.403       .  A
C898       Br899   1.937       .  S
C903        C904   1.454       .  A
C903        C908   1.404       .  A
C903       Br910   1.900       .  S
C904        C905   1.463       .  A
C905        C906   1.425       .  A
C905       Br912   1.939       .  S
C906        C907   1.395       .  A
C906       Br911   1.940       .  S
C907        C908   1.383       .  A
C908       Br909   1.953       .  S
