geometry optimzed in LAMMPS
_audit_creation_date              2020-11-30 
_audit_creation_method            'lammps2cif' 
_symmetry_space_group_name_H-M    'P1' 
_symmetry_Int_Tables_number       1 
_symmetry_cell_setting            triclinic 
loop_ 
_symmetry_equiv_pos_as_xyz 
  x,y,z 
_cell_length_a                    25.24422091 
_cell_length_b                    26.649966669201678 
_cell_length_c                    25.192352294313753 
_cell_angle_alpha                 89.7852249472473 
_cell_angle_beta                  86.6701819797676 
_cell_angle_gamma                 92.04129433432307 
loop_ 
_atom_site_label 
_atom_site_type_symbol 
_atom_site_fract_x 
_atom_site_fract_y 
_atom_site_fract_z 
_atom_site_charge 
C1          C  0.60104589  0.59510524  0.60223589    -0.01100
C2          C  0.96442559  0.08962800  0.59264210    -0.01100
C3          C  0.10330350  0.58452022  0.96499127    -0.01100
C4          C  0.46589589  0.41156655  0.47570222    -0.01100
C5          C  0.59655125  0.91351725  0.08393160    -0.01100
C6          C  0.95357004  0.40946449  0.10607649    -0.01100
C7          C  0.46224557  0.08956291  0.96377520    -0.01100
C8          C  0.09996579  0.91465535  0.45171019    -0.01100
Zr9        Zr  0.95216322  0.05215699  0.98218931     2.17500
O10         O  0.88173759  0.07501477  0.92518351    -0.50000
O11         O  0.94767928  0.14181200  0.00310234    -0.73200
O12         O  0.86257898  0.03404658  0.02231144    -0.79900
O13         O  0.05301700  0.05014767  0.86121779    -0.81700
O14         O  0.86864023  0.99502286  0.10215434    -0.77300
O15         O  0.96688721  0.06495241  0.88611583    -0.88900
O16         O  0.01397995  0.16336008  0.05679838    -0.74900
O17         O  0.97143078  0.06019969  0.07340261    -0.84400
O18         O  0.04213519  0.08263054  0.98247848    -0.84100
O19         O  0.94038859  0.96830028  0.01859678    -0.70800
O20         O  0.00473038  0.99037411  0.93660693    -0.83000
Zr21       Zr  0.10324434  0.94601124  0.06825679     2.26400
Zr22       Zr  0.96096615  0.97696469  0.11003994     2.06300
Zr23       Zr  0.09469355  0.02022889  0.93878066     2.10000
Zr24       Zr  0.06176052  0.08936068  0.07356800     1.78800
O25         O  0.12626546  0.96634556  0.86660211    -0.91800
O26         O  0.03473995  0.12017256  0.16160189    -0.39600
O27         O  0.11477281  0.02833097  0.02979309    -0.76200
O28         O  0.05091292  0.00826359  0.11401980    -0.94900
O29         O  0.01384153  0.91483736  0.06638839    -0.88200
O30         O  0.08535868  0.93755089  0.97654959    -0.91100
C31         C  0.97407533  0.17354821  0.03042644     1.02700
C32         C  0.00617797  0.06301780  0.85145390     1.15600
C33         C  0.84223916  0.01338501  0.06532054     1.06400
O34         O  0.93168145  0.02310119  0.18905330    -0.93200
O35         O  0.99822454  0.93946791  0.18651936    -0.89000
O36         O  0.08495336  0.92618976  0.16277759    -0.82100
C37         C  0.04477604  0.92585757  0.19652415     1.13000
O38         O  0.92363285  0.89557009  0.91495190    -0.95200
Zr39       Zr  0.99522131  0.90815362  0.97504911     1.88900
O40         O  0.10804648  0.85653688  0.04851186    -0.71800
O41         O  0.90860282  0.90094495  0.13449965    -0.51100
O42         O  0.92614521  0.84926207  0.01120354    -0.95800
O43         O  0.02593989  0.87662033  0.88826232    -0.53000
O44         O  0.04120765  0.83371360  0.99594889    -0.72400
C45         C  0.08102069  0.82408714  0.02281951     1.00000
O46         O  0.18299443  0.92467050  0.11250253    -0.61200
O47         O  0.14705854  0.09254801  0.90276606    -0.54800
O48         O  0.19256986  0.97374832  0.03468992    -0.92700
O49         O  0.18729283  0.01411868  0.95542192    -0.91100
O50         O  0.12864566  0.14972533  0.03631642    -0.91400
O51         O  0.13598721  0.10164101  0.13033123    -0.90200
C52         C  0.21319335  0.99718519  0.99337041     1.18800
H53         H  0.04707420  0.11453196  0.96421325     0.34800
H54         H  0.06041185  0.01305853  0.15025058     0.45600
H55         H  0.10949869  0.91502408  0.95866530     0.39200
H56         H  0.90490487  0.95448756  0.01530282     0.35600
H57         H  0.04722619  0.15582461  0.16140816     0.27400
H58         H  0.88458768  0.91093278  0.16478791     0.33400
H59         H  0.93526644  0.81631567  0.99583896     0.39300
H60         H  0.12294794  0.18079630  0.05699820     0.33700
H61         H  0.16103951  0.08172784  0.86727912     0.32600
H62         H  0.16145156  0.98117758  0.85454370     0.34300
H63         H  0.06166686  0.86381820  0.89315617     0.33300
H64         H  0.15399352  0.06922846  0.12912286     0.37300
H65         H  0.18442640  0.94710772  0.14368367     0.30000
H66         H  0.85903618  0.09801650  0.94636201     0.34200
H67         H  0.92383137  0.85965682  0.90500650     0.37100
H68         H  0.12108521  0.11828157  0.89525914     0.29700
H69         H  0.17563461  0.89059836  0.12758986     0.42600
H70         H  0.91863636  0.05499678  0.17541352     0.32600
H71         H  0.99559465  0.12149685  0.16179460     0.40200
H72         H  0.03253214  0.90704792  0.86585921     0.32100
H73         H  0.88499896  0.89525096  0.10487917     0.32100
H74         H  0.85946818  0.04405431  0.92117217     0.32400
Zr75       Zr  0.57412575  0.07826923  0.57615446     2.17500
O76         O  0.63283765  0.15115917  0.59027199    -0.50000
O77         O  0.55225097  0.08679761  0.67150006    -0.73200
O78         O  0.53168562  0.15832231  0.56383329    -0.79900
O79         O  0.69436746  0.99290412  0.56780917    -0.81700
O80         O  0.45220490  0.14427848  0.52732099    -0.77300
O81         O  0.66953061  0.07281696  0.58501373    -0.88900
O82         O  0.49578600  0.02231283  0.69889034    -0.74900
O83         O  0.48347457  0.05196366  0.59166108    -0.84400
O84         O  0.57428575  0.99469524  0.61027195    -0.84100
O85         O  0.53698453  0.08341647  0.49041202    -0.70800
O86         O  0.61911015  0.02953290  0.50848131    -0.83000
Zr87       Zr  0.48755339  0.92266811  0.47278128     2.26400
Zr88       Zr  0.44608375  0.05557007  0.50663135     2.06300
Zr89       Zr  0.61698253  0.94545413  0.54197598     2.10000
Zr90       Zr  0.48366641  0.96801283  0.62418827     1.78800
O91         O  0.69061964  0.92019599  0.48236250    -0.91800
O92         O  0.39518462  0.98368372  0.66291537    -0.39600
O93         O  0.52633191  0.91805053  0.55734501    -0.76200
O94         O  0.44282419  0.97129182  0.54113731    -0.94900
O95         O  0.48883190  0.00616640  0.43861954    -0.88200
O96         O  0.57876084  0.94803182  0.45745485    -0.91100
C97         C  0.52253010  0.06287251  0.70687637     1.02700
C98         C  0.70402860  0.03858611  0.58058074     1.15600
C99         C  0.48805290  0.17307477  0.54632395     1.06400
O100        O  0.36639874  0.07579728  0.56031799    -0.93200
O101        O  0.37013567  0.01252898  0.47166440    -0.89000
O102        O  0.39371824  0.93209969  0.45566590    -0.82100
C103        C  0.36019331  0.96731055  0.45743699     1.13000
O104        O  0.63359096  0.10830716  0.40464085    -0.95200
Zr105      Zr  0.57972482  0.03200490  0.42454442     1.88900
O106        O  0.50918563  0.91397436  0.37731026    -0.71800
O107        O  0.42161081  0.10027107  0.42767738    -0.51100
O108        O  0.53713873  0.08459922  0.36148343    -0.95800
O109        O  0.66826061  0.01394386  0.38706669    -0.53000
O110        O  0.56481290  0.97894672  0.34933934    -0.72400
C111        C  0.53784310  0.93846307  0.34148142     1.00000
O112        O  0.43820462  0.84309454  0.46296339    -0.61200
O113        O  0.65015526  0.90243115  0.61826862    -0.56000
O114        O  0.52478964  0.84184086  0.49369511    -0.92700
O115        O  0.60376658  0.85584286  0.53144196    -0.91100
O116        O  0.52616726  0.91382568  0.68579888    -0.91400
O117        O  0.42921168  0.89222684  0.64378237    -0.90200
C118        C  0.56706769  0.82696419  0.51411917     1.18800
H119        H  0.59266016  0.99359785  0.64279429     0.34800
H120        H  0.40664291  0.95926182  0.54838985     0.45600
H121        H  0.59686647  0.92569523  0.43289886     0.39200
H122        H  0.53964710  0.11711815  0.47618492     0.35600
H123        H  0.39640061  0.97447777  0.70093818     0.27400
H124        H  0.38877984  0.11747324  0.43913633     0.33400
H125        H  0.55439440  0.07679794  0.32632343     0.39300
H126        H  0.50720189  0.91935799  0.72067457     0.33700
H127        H  0.68608974  0.89204593  0.60605563     0.32600
H128        H  0.71000328  0.89617661  0.50340005     0.34300
H129        H  0.66636630  0.01844168  0.34819799     0.33300
H130        H  0.42755620  0.87496814  0.60914914     0.37300
H131        H  0.40781517  0.84348622  0.48965112     0.30000
H132        H  0.61424830  0.17149073  0.61789367     0.34200
H133        H  0.64179625  0.10818493  0.36572067     0.37100
H134        H  0.65656529  0.92887589  0.64487156     0.29700
H135        H  0.42233951  0.84477110  0.42799006     0.42600
H136        H  0.37947669  0.08860398  0.59418130     0.32600
H137        H  0.39302392  0.02069532  0.66292570     0.40200
H138        H  0.67149857  0.97732601  0.39186268     0.32100
H139        H  0.44891463  0.12766905  0.42210481     0.32100
H140        H  0.63316612  0.17146387  0.55723902     0.32400
Zr141      Zr  0.57101245  0.42469916  0.08771673     2.17500
O142        O  0.61626363  0.34608727  0.09807126    -0.50000
O143        O  0.55359426  0.41439803  0.18353685    -0.73200
O144        O  0.66546065  0.43695095  0.10265053    -0.79900
O145        O  0.45202746  0.35204925  0.03171132    -0.81700
O146        O  0.69115721  0.51877115  0.08802314    -0.77300
O147        O  0.53219136  0.34251982  0.06682317    -0.88900
O148        O  0.50300149  0.47832818  0.21362787    -0.74900
O149        O  0.57210692  0.50764828  0.12269842    -0.84400
O150        O  0.48024441  0.44481190  0.10478950    -0.84100
O151        O  0.61628511  0.47589509  0.01897773    -0.70800
O152        O  0.53121548  0.41948915  0.00353575    -0.83000
Zr153      Zr  0.48512422  0.57695489  0.98821786     2.26400
Zr154      Zr  0.61553932  0.55947882  0.05407038     2.06300
Zr155      Zr  0.44086475  0.44122431  0.02061789     2.10000
Zr156      Zr  0.48146806  0.52812356  0.13841855     1.78800
O157        O  0.41028453  0.39902513  0.94177973    -0.91800
O158        O  0.51610045  0.58875844  0.20097067    -0.39600
O159        O  0.43994951  0.52445889  0.05553550    -0.76200
O160        O  0.52520508  0.58193457  0.07245645    -0.94900
O161        O  0.57537188  0.55618068  0.97059084    -0.88200
O162        O  0.48372216  0.49404248  0.95314715    -0.91100
C163        C  0.52875113  0.43865468  0.22050716     1.02700
C164        C  0.48917199  0.32527935  0.04775732     1.15600
C165        C  0.70006553  0.47347870  0.10111724     1.06400
O166        O  0.64770470  0.60864546  0.12764419    -0.93200
O167        O  0.60826408  0.64809727  0.03459197    -0.89000
O168        O  0.53288966  0.65796963  0.99059120    -0.82100
C169        C  0.57512620  0.67485739  0.01143597     1.13000
O170        O  0.62936118  0.40247500  0.91416228    -0.95200
Zr171      Zr  0.57383963  0.47319438  0.93661504     1.88900
O172        O  0.50307899  0.58998827  0.89278414    -0.71800
O173        O  0.69091624  0.58291759  0.99310905    -0.51100
O174        O  0.66138152  0.50083834  0.89958996    -0.95800
O175        O  0.53476295  0.41690113  0.87232594    -0.53000
O176        O  0.55720238  0.52814363  0.86348856    -0.72400
C177        C  0.53084138  0.56748213  0.85640628     1.00000
O178        O  0.42716543  0.64779015  0.00464377    -0.61200
O179        O  0.36600843  0.40974573  0.07809830    -0.56000
O180        O  0.39387950  0.56349149  0.96350294    -0.92700
O181        O  0.36520350  0.48526047  0.99162205    -0.91100
O182        O  0.39587723  0.49875961  0.17881200    -0.91400
O183        O  0.42263746  0.59707077  0.15771721    -0.90200
C184        C  0.35797826  0.52852798  0.97144344     1.18800
H185        H  0.46216362  0.42138208  0.12971034     0.34800
H186        H  0.52363569  0.61567046  0.08622783     0.45600
H187        H  0.46465079  0.49238050  0.92100285     0.39200
H188        H  0.65205507  0.46542610  0.01099359     0.35600
H189        H  0.49608531  0.58098685  0.23516438     0.27400
H190        H  0.71729234  0.59897518  0.01587025     0.33400
H191        H  0.65831441  0.50138830  0.86058764     0.39300
H192        H  0.39820910  0.50529218  0.21728696     0.33700
H193        H  0.34563466  0.43979698  0.08769250     0.32600
H194        H  0.37457607  0.38472445  0.95281745     0.34300
H195        H  0.51001451  0.43746238  0.85321250     0.33300
H196        H  0.41924585  0.61363390  0.12290121     0.37300
H197        H  0.39545424  0.63391869  0.02540116     0.30000
H198        H  0.63313023  0.34842864  0.13253162     0.34200
H199        H  0.63860973  0.40558448  0.87551335     0.37100
H200        H  0.34322993  0.39039051  0.05423075     0.29700
H201        H  0.44460405  0.66963800  0.03065050     0.42600
H202        H  0.64436906  0.58551939  0.15860742     0.32600
H203        H  0.55256762  0.57817842  0.20647850     0.40200
H204        H  0.51144805  0.39319638  0.89410188     0.32100
H205        H  0.70653942  0.55072162  0.98231679     0.32100
H206        H  0.64608896  0.34687369  0.07068454     0.32400
Zr207      Zr  0.99061026  0.57924847  0.59018519     2.17500
O208        O  0.94966308  0.65718442  0.61848981    -0.50000
O209        O  0.00912529  0.58555430  0.68447076    -0.73200
O210        O  0.89380946  0.57059918  0.60675213    -0.79900
O211        O  0.11140044  0.65115321  0.52154860    -0.81700
O212        O  0.86604358  0.49032509  0.58997985    -0.77300
O213        O  0.02982934  0.66104657  0.56291774    -0.88900
O214        O  0.05841881  0.52015267  0.70763721    -0.74900
O215        O  0.98553474  0.49481655  0.62202110    -0.84400
O216        O  0.08017039  0.55593125  0.59871474    -0.84100
O217        O  0.94716304  0.53202085  0.52246130    -0.70800
O218        O  0.03447479  0.58683158  0.50304397    -0.83000
Zr219      Zr  0.07511172  0.42861774  0.47678820     2.26400
Zr220      Zr  0.94342203  0.44690282  0.55462222     2.06300
Zr221      Zr  0.12334031  0.56155787  0.51154121     2.10000
Zr222      Zr  0.07515195  0.47123228  0.62912139     1.78800
O223        O  0.16276765  0.60087686  0.43054421    -0.91800
O224        O  0.03204117  0.41203097  0.69331653    -0.39600
O225        O  0.11921366  0.47657469  0.54275792    -0.76200
O226        O  0.03250484  0.42152266  0.56491685    -0.94900
O227        O  0.98642891  0.45338002  0.46754534    -0.88200
O228        O  0.08170536  0.51303186  0.44444292    -0.91100
C229        C  0.03400434  0.56034968  0.71805123     1.02700
C230        C  0.07357515  0.67815549  0.53999021     1.15600
C231        C  0.85760170  0.53567097  0.60411142     1.06400
O232        O  0.90422274  0.40005781  0.63114631    -0.93200
O233        O  0.95018705  0.35741524  0.53718761    -0.89000
O234        O  0.03156686  0.34674421  0.49563718    -0.82100
C235        C  0.98695416  0.33002730  0.51697937     1.13000
O236        O  0.94529344  0.61532063  0.42571311    -0.95200
Zr237      Zr  0.99274026  0.53817614  0.43691285     1.88900
O238        O  0.05735701  0.42258077  0.38240170    -0.71800
O239        O  0.87232808  0.42266841  0.49759213    -0.51100
O240        O  0.90376674  0.52113242  0.40700772    -0.95800
O241        O  0.03803390  0.59231464  0.36896470    -0.53000
O242        O  0.00243584  0.48429103  0.36101862    -0.72400
C243        C  0.02850418  0.44511757  0.35013344     1.00000
O244        O  0.11744155  0.35108668  0.44947469    -0.61200
O245        O  0.19616677  0.59106657  0.56426358    -0.56000
O246        O  0.17249941  0.43555839  0.46858783    -0.92700
O247        O  0.20135409  0.51554729  0.48494737    -0.91100
O248        O  0.16289916  0.49347874  0.65912772    -0.91400
O249        O  0.12865566  0.39838218  0.64220578    -0.90200
C250        C  0.20926009  0.46970247  0.47275035     1.18800
H251        H  0.09809074  0.57772060  0.62295988     0.34800
H252        H  0.03329068  0.38818808  0.57974616     0.45600
H253        H  0.10222086  0.51521782  0.41093391     0.39200
H254        H  0.91241557  0.54386160  0.51630451     0.35600
H255        H  0.05351305  0.41458487  0.72493699     0.27400
H256        H  0.84457815  0.40643066  0.52192439     0.33400
H257        H  0.90693096  0.52651148  0.36802283     0.39300
H258        H  0.16057346  0.48564024  0.69766620     0.33700
H259        H  0.22083377  0.60983436  0.53872736     0.32600
H260        H  0.19033842  0.62479718  0.44277946     0.34300
H261        H  0.06229597  0.57044274  0.34819877     0.33300
H262        H  0.13782775  0.38630266  0.60582324     0.37300
H263        H  0.13980913  0.35946569  0.41683417     0.30000
H264        H  0.92998060  0.64951136  0.65288252     0.34200
H265        H  0.93863217  0.61730274  0.38742520     0.37100
H266        H  0.18120680  0.61720757  0.58795039     0.29700
H267        H  0.14270216  0.34375091  0.47690076     0.42600
H268        H  0.90608199  0.42364371  0.66130636     0.32600
H269        H  0.99810559  0.42735584  0.70465359     0.40200
H270        H  0.06178474  0.61481045  0.38883422     0.32100
H271        H  0.85711476  0.45473565  0.48715924     0.32100
H272        H  0.92197004  0.66331732  0.59317409     0.32400
C273        C  0.15684943  0.92808152  0.44820413    -0.17100
C274        C  0.20408596  0.93696748  0.44471168     0.06900
C275        C  0.25950075  0.94625453  0.44292520     0.08800
C276        C  0.30638603  0.95481674  0.44602409    -0.18000
C277        C  0.09189261  0.86589821  0.47868936    -0.17100
C278        C  0.08734929  0.82469620  0.49878861     0.06900
C279        C  0.08315990  0.77505741  0.51872253     0.08800
C280        C  0.07935058  0.73135805  0.53138398    -0.18000
C281        C  0.08193413  0.91074229  0.39754677    -0.17100
C282        C  0.07089397  0.90830896  0.35165611     0.06900
C283        C  0.06084282  0.90831125  0.29713056     0.08800
C284        C  0.05334241  0.91289943  0.25057879    -0.18000
C285        C  0.46763489  0.13803819  0.99056342    -0.17100
C286        C  0.47238013  0.17890504  0.01048028     0.06900
C287        C  0.47814016  0.22833244  0.02968266     0.08800
C288        C  0.48313874  0.27201823  0.04117177    -0.18000
C289        C  0.51795161  0.08222301  0.75991686    -0.17100
C290        C  0.50858577  0.09160249  0.80620612     0.06900
C291        C  0.49368015  0.09575956  0.86083137     0.08800
C292        C  0.47951922  0.09482864  0.90739567    -0.18000
C293        C  0.26895652  0.00894199  0.99026646    -0.17100
C294        C  0.31357949  0.02620721  0.98431762     0.06900
C295        C  0.36379690  0.05045199  0.97573402     0.08800
C296        C  0.40718574  0.07048207  0.96908664    -0.18000
C297        C  0.97497581  0.40608242  0.15884202    -0.17100
C298        C  0.99284123  0.40736658  0.20224125     0.06900
C299        C  0.01172152  0.41413362  0.25349180     0.08800
C300        C  0.02332757  0.42514199  0.29782300    -0.18000
C301        C  0.89864502  0.42585981  0.11154437    -0.17100
C302        C  0.85300653  0.43812320  0.11449773     0.06900
C303        C  0.79934318  0.45150566  0.11504948     0.08800
C304        C  0.75361985  0.46210265  0.11161371    -0.18000
C305        C  0.95867694  0.22479026  0.03300363    -0.17100
C306        C  0.95351410  0.26860748  0.04302703     0.06900
C307        C  0.95307687  0.31863088  0.06132937     0.08800
C308        C  0.95403642  0.36012015  0.08039479    -0.18000
C309        C  0.49431009  0.05261649  0.98853296    -0.17100
C310        C  0.51619224  0.01898635  0.00916248     0.06900
C311        C  0.54004533  0.97907931  0.03399279     0.08800
C312        C  0.56291300  0.94709571  0.05626739    -0.18000
C313        C  0.54101322  0.91980989  0.28806010    -0.17100
C314        C  0.54914338  0.91111955  0.24140390     0.06900
C315        C  0.56299332  0.90762973  0.18643544     0.08800
C316        C  0.57723418  0.90871105  0.13985779    -0.18000
C317        C  0.59603652  0.86405196  0.05859295    -0.17100
C318        C  0.59375237  0.82247783  0.03987078     0.06900
C319        C  0.58937711  0.77239699  0.02214628     0.08800
C320        C  0.58404148  0.72824312  0.01282545    -0.18000
C321        C  0.65018503  0.93654254  0.08093895    -0.17100
C322        C  0.69218877  0.95964436  0.07788398     0.06900
C323        C  0.74138238  0.98653807  0.07396397     0.08800
C324        C  0.78595442  0.00435400  0.07025839    -0.18000
C325        C  0.46893420  0.36267495  0.50215184    -0.17100
C326        C  0.47144684  0.32081697  0.52009116     0.06900
C327        C  0.47543453  0.27028640  0.53606145     0.08800
C328        C  0.48028946  0.22613324  0.54435400    -0.18000
C329        C  0.40992765  0.42418052  0.47279931    -0.17100
C330        C  0.36380270  0.43360393  0.46922223     0.06900
C331        C  0.30968636  0.44465282  0.46599533     0.08800
C332        C  0.26354532  0.45516900  0.46632021    -0.18000
C333        C  0.48985877  0.40834476  0.42147761    -0.17100
C334        C  0.50663145  0.40780045  0.37569685     0.06900
C335        C  0.52137753  0.41160920  0.32094969     0.08800
C336        C  0.52841542  0.42042440  0.27409859    -0.18000
C337        C  0.07211996  0.54722712  0.99791998    -0.17100
C338        C  0.04565051  0.51539469  0.02256548     0.06900
C339        C  0.01384056  0.47781615  0.05003562     0.08800
C340        C  0.98640134  0.44628055  0.07408302    -0.18000
C341        C  0.30486494  0.53924549  0.95904787    -0.17100
C342        C  0.25892138  0.54814491  0.95440131     0.06900
C343        C  0.20465413  0.55897384  0.95456501     0.08800
C344        C  0.15852065  0.56943501  0.95811531    -0.18000
C345        C  0.08064911  0.58774406  0.91285207    -0.17100
C346        C  0.06305653  0.58876652  0.86937555     0.06900
C347        C  0.04584425  0.58597986  0.81714270     0.08800
C348        C  0.03640847  0.57809491  0.77152133    -0.18000
C349        C  0.10242225  0.63406071  0.99002574    -0.17100
C350        C  0.10271196  0.67670337  0.00587713     0.06900
C351        C  0.10124950  0.72818858  0.01841297     0.08800
C352        C  0.09560580  0.77263235  0.02356537    -0.18000
C353        C  0.99491758  0.05273324  0.56151699    -0.17100
C354        C  0.01900864  0.02167578  0.53602250     0.06900
C355        C  0.04679742  0.98482321  0.50646092     0.08800
C356        C  0.07062532  0.95320656  0.48154379    -0.18000
C357        C  0.98001690  0.27663603  0.52307967    -0.17100
C358        C  0.97797843  0.23254920  0.53418060     0.06900
C359        C  0.97682480  0.18223271  0.55203045     0.08800
C360        C  0.97377038  0.14003945  0.56973394    -0.18000
C361        C  0.90768744  0.07691518  0.59162472    -0.17100
C362        C  0.86042837  0.06909153  0.59173694     0.06900
C363        C  0.80509673  0.06086763  0.59127259     0.08800
C364        C  0.75823131  0.05238507  0.58851723    -0.18000
C365        C  0.97885466  0.08915146  0.64826503    -0.17100
C366        C  0.98632372  0.08693055  0.69511427     0.06900
C367        C  0.99213331  0.08172597  0.75031142     0.08800
C368        C  0.99720514  0.07474851  0.79707064    -0.18000
C369        C  0.57289142  0.55489245  0.57412649    -0.17100
C370        C  0.54845570  0.52207590  0.55196132     0.06900
C371        C  0.51926576  0.48355062  0.52673876     0.08800
C372        C  0.49465964  0.45075962  0.50470569    -0.18000
C373        C  0.59634622  0.64288509  0.57399077    -0.17100
C374        C  0.58992635  0.68288171  0.55309275     0.06900
C375        C  0.58072383  0.73111455  0.53285807     0.08800
C376        C  0.57328064  0.77401082  0.52073397    -0.18000
C377        C  0.65737383  0.58331330  0.60541538    -0.17100
C378        C  0.70331192  0.57311762  0.60949483     0.06900
C379        C  0.75707304  0.56051984  0.61330644     0.08800
C380        C  0.80308949  0.54928481  0.61283439    -0.18000
C381        C  0.57688705  0.59929191  0.65643412    -0.17100
C382        C  0.55935926  0.60022048  0.70203854     0.06900
C383        C  0.54286587  0.59635948  0.75651662     0.08800
C384        C  0.53375110  0.58706603  0.80312099    -0.18000
loop_ 
_geom_bond_atom_site_label_1 
_geom_bond_atom_site_label_2 
_geom_bond_distance 
_geom_bond_site_symmetry_2 
_ccdc_geom_bond_type 
C1          C369   1.471       .  S
C1          C373   1.468       .  S
C1          C377   1.474       .  S
C1          C381   1.469       .  S
C2          C353   1.471       .  S
C2          C360   1.466       .  S
C2          C361   1.462       .  S
C2          C365   1.468       .  S
C3          C337   1.469       .  S
C3          C344   1.465       .  S
C3          C345   1.466       .  S
C3          C349   1.466       .  S
C4          C325   1.468       .  S
C4          C329   1.470       .  S
C4          C333   1.466       .  S
C4          C372   1.472       .  S
C5          C312   1.458       .  S
C5          C316   1.468       .  S
C5          C317   1.467       .  S
C5          C321   1.464       .  S
C6          C297   1.467       .  S
C6          C301   1.468       .  S
C6          C308   1.468       .  S
C6          C340   1.469       .  S
C7          C285   1.465       .  S
C7          C292   1.466       .  S
C7          C296   1.461       .  S
C7          C309   1.458       .  S
C8          C273   1.465       .  S
C8          C277   1.466       .  S
C8          C281   1.466       .  S
C8          C356   1.471       .  S
Zr9          O10   2.442       .  S
Zr9          O11   2.454   1_556  S
Zr9          O12   2.454   1_556  S
Zr9          O15   2.448       .  S
Zr9          O17   2.385   1_556  S
Zr9          O18   2.385   1_655  S
Zr9          O19   2.414   1_546  S
Zr9          O20   2.405   1_645  S
O10          H66   0.990       .  S
O10          H74   0.991       .  S
O11          C31   1.285       .  A
O12          C33   1.285       .  A
O13         Zr23   2.418       .  S
O13          C32   1.280       .  A
O14         Zr22   2.416       .  S
O14          C33   1.279   1_565  A
O15          C32   1.285   1_655  A
O16         Zr24   2.397       .  S
O16          C31   1.275   1_455  A
O17         Zr22   2.399   1_545  S
O17         Zr24   2.383   1_655  S
O18         Zr23   2.396       .  S
O18         Zr24   2.382   1_556  S
O18          H53   0.966       .  S
O19         Zr22   2.401       .  S
O19         Zr39   2.384   1_554  S
O19          H56   0.964       .  S
O20         Zr23   2.383   1_565  S
O20         Zr39   2.391   1_455  S
Zr21         O46   2.441       .  S
Zr21         O40   2.443       .  S
Zr21         O48   2.450       .  S
Zr21         O36   2.451       .  S
Zr21         O27   2.396   1_565  S
Zr21         O28   2.413   1_565  S
Zr21         O29   2.380       .  S
Zr21         O30   2.390   1_554  S
Zr22         O41   2.437       .  S
Zr22         O34   2.436   1_565  S
Zr22         O35   2.420       .  S
Zr22         O28   2.399   1_665  S
Zr22         O29   2.394   1_655  S
Zr23         O25   2.436   1_545  S
Zr23         O47   2.440       .  S
Zr23         O49   2.410       .  S
Zr23         O27   2.386   1_556  S
Zr23         O30   2.395   1_545  S
Zr24         O50   2.435       .  S
Zr24         O51   2.436       .  S
Zr24         O26   2.436       .  S
Zr24         O27   2.377       .  S
Zr24         O28   2.386       .  S
O25          H62   0.990       .  S
O26          H57   0.990       .  S
O26          H71   0.990   1_455  S
O28          H54   0.965       .  S
O29         Zr39   2.381   1_454  S
O30         Zr39   2.382   1_455  S
O30          H55   0.965       .  S
C31         C305   1.434       .  S
C32         C368   1.437   1_455  S
C33         C324   1.431       .  S
O34          H70   0.990       .  S
O35          C37   1.281   1_655  A
O36          C37   1.285       .  A
C37         C284   1.434       .  S
O38         Zr39   2.439       .  S
O38          H67   0.990       .  S
Zr39         O42   2.438   1_556  S
Zr39         O43   2.439   1_655  S
Zr39         O44   2.406   1_655  S
O40          C45   1.283       .  A
O41          H58   0.990       .  S
O41          H73   0.990       .  S
O42          H59   0.990   1_554  S
O43          H63   0.990       .  S
O43          H72   0.990       .  S
O44          C45   1.277   1_556  A
C45         C352   1.433       .  S
O46          H65   0.991       .  S
O46          H69   0.990       .  S
O47          H61   0.990       .  S
O47          H68   0.991       .  S
O48          C52   1.286   1_554  A
O49          C52   1.279   1_545  A
O50          H60   0.990       .  S
O51          H64   0.990       .  S
C52         C293   1.429   1_565  S
Zr75         O76   2.441       .  S
Zr75         O77   2.446       .  S
Zr75         O78   2.448       .  S
Zr75         O81   2.441       .  S
Zr75         O83   2.379       .  S
Zr75         O84   2.385   1_545  S
Zr75         O85   2.410       .  S
Zr75         O86   2.404       .  S
O76         H132   0.990       .  S
O76         H140   0.990       .  S
O77          C97   1.284       .  A
O78          C99   1.284       .  A
O79         Zr89   2.412       .  S
O79          C98   1.279   1_565  A
O80         Zr88   2.424       .  S
O80          C99   1.281       .  A
O81          C98   1.284       .  A
O82         Zr90   2.405   1_545  S
O82          C97   1.277       .  A
O83         Zr88   2.393       .  S
O83         Zr90   2.380   1_545  S
O84         Zr89   2.397       .  S
O84         Zr90   2.377       .  S
O84         H119   0.966       .  S
O85         Zr88   2.398       .  S
O85        Zr105   2.389       .  S
O85         H122   0.964       .  S
O86         Zr89   2.389   1_545  S
O86        Zr105   2.390       .  S
Zr87        O112   2.442       .  S
Zr87        O106   2.449       .  S
Zr87        O114   2.448       .  S
Zr87        O102   2.454       .  S
Zr87         O93   2.400       .  S
Zr87         O94   2.411       .  S
Zr87         O95   2.381   1_565  S
Zr87         O96   2.386       .  S
Zr88        O107   2.436       .  S
Zr88        O100   2.436       .  S
Zr88        O101   2.411       .  S
Zr88         O94   2.402   1_545  S
Zr88         O95   2.395       .  S
Zr89         O91   2.436       .  S
Zr89        O113   2.439       .  S
Zr89        O115   2.417       .  S
Zr89         O93   2.387       .  S
Zr89         O96   2.390       .  S
Zr90        O116   2.436       .  S
Zr90        O117   2.435       .  S
Zr90         O92   2.436       .  S
Zr90         O93   2.383       .  S
Zr90         O94   2.388       .  S
O91         H128   0.990       .  S
O92         H123   0.990       .  S
O92         H137   0.990   1_565  S
O94         H120   0.964       .  S
O95        Zr105   2.378       .  S
O96        Zr105   2.382   1_565  S
O96         H121   0.967       .  S
C97         C289   1.434       .  S
C98         C364   1.430       .  S
C99         C328   1.435       .  S
O100        H136   0.990       .  S
O101        C103   1.279   1_545  A
O102        C103   1.285       .  A
C103        C276   1.433       .  S
O104       Zr105   2.440       .  S
O104        H133   0.990       .  S
Zr105       O108   2.436       .  S
Zr105       O109   2.440       .  S
Zr105       O110   2.407   1_545  S
O106        C111   1.285       .  A
O107        H124   0.990       .  S
O107        H139   0.990       .  S
O108        H125   0.990       .  S
O109        H129   0.990       .  S
O109        H138   0.990   1_545  S
O110        C111   1.277       .  A
C111        C313   1.435       .  S
O112        H131   0.991       .  S
O112        H135   0.990       .  S
O113        H127   0.990       .  S
O113        H134   0.990       .  S
O114        C118   1.286       .  A
O115        C118   1.281       .  A
O116        H126   0.990       .  S
O117        H130   0.990       .  S
C118        C376   1.436       .  S
Zr141       O142   2.442       .  S
Zr141       O143   2.441       .  S
Zr141       O144   2.446       .  S
Zr141       O147   2.439       .  S
Zr141       O149   2.383       .  S
Zr141       O150   2.387       .  S
Zr141       O151   2.410       .  S
Zr141       O152   2.401       .  S
O142        H198   0.990       .  S
O142        H206   0.991       .  S
O143        C163   1.282       .  A
O144        C165   1.284       .  A
O145       Zr155   2.420       .  S
O145        C164   1.281       .  A
O146       Zr154   2.425       .  S
O146        C165   1.281       .  A
O147        C164   1.284       .  A
O148       Zr156   2.408       .  S
O148        C163   1.277       .  A
O149       Zr154   2.399       .  S
O149       Zr156   2.382       .  S
O150       Zr155   2.394       .  S
O150       Zr156   2.379       .  S
O150        H185   0.967       .  S
O151       Zr154   2.400       .  S
O151       Zr171   2.390   1_554  S
O151        H188   0.965       .  S
O152       Zr155   2.388       .  S
O152       Zr171   2.390   1_554  S
Zr153       O178   2.451   1_556  S
Zr153       O172   2.442       .  S
Zr153       O180   2.435       .  S
Zr153       O168   2.438       .  S
Zr153       O159   2.404   1_556  S
Zr153       O160   2.406   1_556  S
Zr153       O161   2.381       .  S
Zr153       O162   2.383       .  S
Zr154       O173   2.437   1_554  S
Zr154       O166   2.435       .  S
Zr154       O167   2.426       .  S
Zr154       O160   2.398       .  S
Zr154       O161   2.388   1_554  S
Zr155       O157   2.437   1_554  S
Zr155       O179   2.436       .  S
Zr155       O181   2.424   1_554  S
Zr155       O159   2.390       .  S
Zr155       O162   2.388   1_554  S
Zr156       O182   2.436       .  S
Zr156       O183   2.436       .  S
Zr156       O158   2.437       .  S
Zr156       O159   2.391       .  S
Zr156       O160   2.386       .  S
O157        H194   0.990       .  S
O158        H189   0.990       .  S
O158        H203   0.990       .  S
O160        H186   0.966       .  S
O161       Zr171   2.374       .  S
O162       Zr171   2.375       .  S
O162        H187   0.966       .  S
C163        C336   1.433       .  S
C164        C288   1.433       .  S
C165        C304   1.435       .  S
O166        H202   0.990       .  S
O167        C169   1.282       .  A
O168        C169   1.284   1_556  A
C169        C320   1.433       .  S
O170       Zr171   2.437       .  S
O170        H199   0.990       .  S
Zr171       O174   2.436       .  S
Zr171       O175   2.438       .  S
Zr171       O176   2.414       .  S
O172        C177   1.285       .  A
O173        H190   0.991   1_556  S
O173        H205   0.989       .  S
O174        H191   0.990       .  S
O175        H195   0.990       .  S
O175        H204   0.990       .  S
O176        C177   1.279       .  A
C177        C384   1.435       .  S
O178        H197   0.990       .  S
O178        H201   0.990       .  S
O179        H193   0.990       .  S
O179        H200   0.990       .  S
O180        C184   1.283       .  A
O181        C184   1.282       .  A
O182        H192   0.990       .  S
O183        H196   0.990       .  S
C184        C341   1.433       .  S
Zr207       O208   2.443       .  S
Zr207       O209   2.453   1_655  S
Zr207       O210   2.458       .  S
Zr207       O213   2.441   1_655  S
Zr207       O215   2.383       .  S
Zr207       O216   2.387   1_655  S
Zr207       O217   2.415       .  S
Zr207       O218   2.405   1_655  S
O208        H264   0.990       .  S
O208        H272   0.991       .  S
O209        C229   1.284       .  A
O210        C231   1.286       .  A
O211       Zr221   2.430       .  S
O211        C230   1.283       .  A
O212       Zr220   2.432       .  S
O212        C231   1.283       .  A
O213        C230   1.284       .  A
O214       Zr222   2.398       .  S
O214        C229   1.275       .  A
O215       Zr220   2.403       .  S
O215       Zr222   2.386   1_655  S
O216       Zr221   2.396       .  S
O216       Zr222   2.378       .  S
O216        H251   0.965       .  S
O217       Zr220   2.403       .  S
O217       Zr237   2.386       .  S
O217        H254   0.963       .  S
O218       Zr221   2.386       .  S
O218       Zr237   2.385   1_455  S
Zr219       O244   2.443       .  S
Zr219       O238   2.450       .  S
Zr219       O246   2.455       .  S
Zr219       O234   2.440       .  S
Zr219       O225   2.401       .  S
Zr219       O226   2.414       .  S
Zr219       O227   2.380   1_455  S
Zr219       O228   2.387       .  S
Zr220       O239   2.434       .  S
Zr220       O232   2.434       .  S
Zr220       O233   2.437       .  S
Zr220       O226   2.399   1_655  S
Zr220       O227   2.393       .  S
Zr221       O223   2.434       .  S
Zr221       O245   2.439       .  S
Zr221       O247   2.420       .  S
Zr221       O225   2.391       .  S
Zr221       O228   2.400       .  S
Zr222       O248   2.436       .  S
Zr222       O249   2.436       .  S
Zr222       O224   2.438       .  S
Zr222       O225   2.387       .  S
Zr222       O226   2.376       .  S
O223        H260   0.990       .  S
O224        H255   0.990       .  S
O224        H269   0.990   1_455  S
O226        H252   0.964       .  S
O227       Zr237   2.382       .  S
O228       Zr237   2.384   1_455  S
O228        H253   0.965       .  S
C229        C348   1.433       .  S
C230        C280   1.435       .  S
C231        C380   1.440       .  S
O232        H268   0.990       .  S
O233        C235   1.284       .  A
O234        C235   1.284   1_455  A
C235        C357   1.434       .  S
O236       Zr237   2.440       .  S
O236        H265   0.990       .  S
Zr237       O240   2.438       .  S
Zr237       O241   2.440   1_655  S
Zr237       O242   2.402   1_655  S
O238        C243   1.284       .  A
O239        H256   0.990       .  S
O239        H271   0.990       .  S
O240        H257   0.990       .  S
O241        H261   0.989       .  S
O241        H270   0.990       .  S
O242        C243   1.276       .  A
C243        C300   1.434       .  S
O244        H263   0.990       .  S
O244        H267   0.991       .  S
O245        H259   0.990       .  S
O245        H266   0.990       .  S
O246        C250   1.285       .  A
O247        C250   1.281       .  A
O248        H258   0.990       .  S
O249        H262   0.990       .  S
C250        C332   1.438       .  S
C273        C274   1.206       .  T
C274        C275   1.410       .  S
C275        C276   1.204       .  T
C277        C278   1.206       .  T
C278        C279   1.411       .  S
C279        C280   1.205       .  T
C281        C282   1.206       .  T
C282        C283   1.411       .  S
C283        C284   1.205       .  T
C285        C286   1.206   1_556  T
C286        C287   1.411       .  S
C287        C288   1.205       .  T
C289        C290   1.205       .  T
C290        C291   1.411       .  S
C291        C292   1.206       .  T
C293        C294   1.203       .  T
C294        C295   1.407       .  S
C295        C296   1.204       .  T
C297        C298   1.207       .  T
C298        C299   1.412   1_655  S
C299        C300   1.206       .  T
C301        C302   1.207       .  T
C302        C303   1.412       .  S
C303        C304   1.206       .  T
C305        C306   1.206       .  T
C306        C307   1.412       .  S
C307        C308   1.207       .  T
C309        C310   1.202   1_556  T
C310        C311   1.403   1_545  S
C311        C312   1.202       .  T
C313        C314   1.206       .  T
C314        C315   1.413       .  S
C315        C316   1.207       .  T
C317        C318   1.207       .  T
C318        C319   1.412       .  S
C319        C320   1.205       .  T
C321        C322   1.205       .  T
C322        C323   1.410       .  S
C323        C324   1.204   1_565  T
C325        C326   1.207       .  T
C326        C327   1.413       .  S
C327        C328   1.206       .  T
C329        C330   1.208       .  T
C330        C331   1.415       .  S
C331        C332   1.207       .  T
C333        C334   1.206       .  T
C334        C335   1.410       .  S
C335        C336   1.204       .  T
C337        C338   1.208   1_556  T
C338        C339   1.414       .  S
C339        C340   1.208   1_455  T
C341        C342   1.204       .  T
C342        C343   1.410       .  S
C343        C344   1.206       .  T
C345        C346   1.206       .  T
C346        C347   1.411       .  S
C347        C348   1.205       .  T
C349        C350   1.206   1_556  T
C350        C351   1.410       .  S
C351        C352   1.205       .  T
C353        C354   1.209   1_655  T
C354        C355   1.416   1_545  S
C355        C356   1.209       .  T
C357        C358   1.205       .  T
C358        C359   1.412       .  S
C359        C360   1.206       .  T
C361        C362   1.204       .  T
C362        C363   1.407       .  S
C363        C364   1.203       .  T
C365        C366   1.208       .  T
C366        C367   1.414       .  S
C367        C368   1.207       .  T
C369        C370   1.209       .  T
C370        C371   1.416       .  S
C371        C372   1.209       .  T
C373        C374   1.207       .  T
C374        C375   1.413       .  S
C375        C376   1.206       .  T
C377        C378   1.211       .  T
C378        C379   1.418       .  S
C379        C380   1.209       .  T
C381        C382   1.208       .  T
C382        C383   1.413       .  S
C383        C384   1.206       .  T
