geometry optimzed in LAMMPS
_audit_creation_date              2020-11-30 
_audit_creation_method            'lammps2cif' 
_symmetry_space_group_name_H-M    'P1' 
_symmetry_Int_Tables_number       1 
_symmetry_cell_setting            triclinic 
loop_ 
_symmetry_equiv_pos_as_xyz 
  x,y,z 
_cell_length_a                    27.94839166 
_cell_length_b                    28.0365895191129 
_cell_length_c                    27.99571225905501 
_cell_angle_alpha                 89.8946314416935 
_cell_angle_beta                  89.96741810194963 
_cell_angle_gamma                 89.94392119914447 
loop_ 
_atom_site_label 
_atom_site_type_symbol 
_atom_site_fract_x 
_atom_site_fract_y 
_atom_site_fract_z 
_atom_site_charge 
O1          O  0.99663619  0.07930052  0.13274528    -0.86200
O2          O  0.99848782  0.07629226  0.86041290    -0.86400
O3          O  0.07363810  0.13883631  0.00083862    -0.88100
O4          O  0.91975187  0.13298652  0.99511872    -0.86800
O5          O  0.86342667  0.07332989  0.99922844    -0.86400
O6          O  0.13306367  0.08313331  0.99597982    -0.87800
O7          O  0.99925159  0.13408227  0.91846001    -0.86300
O8          O  0.99327871  0.13657082  0.07436706    -0.85900
Zr9        Zr  0.99813489  0.09596888  0.99727405     2.84300
O10         O  0.95060253  0.04634125  0.94973617    -1.07800
O11         O  0.04816396  0.05010228  0.04623878    -1.08600
C12         C  0.99338672  0.12325556  0.11862641     1.06900
C13         C  0.99872244  0.12010545  0.87443893     1.06800
C14         C  0.11813431  0.12674228  0.99888942     1.09800
C15         C  0.87636715  0.11760790  0.99726540     1.07600
H16         H  0.06765454  0.06976052  0.92891479     0.33100
O17         O  0.04824728  0.04954388  0.94906178    -1.28800
H18         H  0.93041698  0.06574936  0.06578743     0.32800
O19         O  0.95120958  0.04650687  0.04605545    -1.30500
O20         O  0.99843366  0.92360595  0.86058110    -0.86200
O21         O  0.00569154  0.92144159  0.13311846    -0.87700
O22         O  0.13663736  0.99916288  0.91999590    -0.86300
O23         O  0.86422682  0.99372523  0.92151472    -0.86400
O24         O  0.86597486  0.99324183  0.07623350    -0.86100
O25         O  0.13604919  0.00800904  0.07714025    -0.85900
O26         O  0.08549996  0.86811156  0.99833222    -0.86300
O27         O  0.92914971  0.86134300  0.00505769    -0.85700
O28         O  0.14112466  0.92750959  0.00427390    -0.86800
O29         O  0.86848121  0.91634419  0.00386682    -0.85900
O30         O  0.07830427  0.99872197  0.86207024    -0.86300
O31         O  0.07794875  0.00661097  0.13515301    -0.86100
O32         O  0.92362445  0.99807502  0.13388231    -0.85700
O33         O  0.92179262  0.00064504  0.86371915    -0.86100
O34         O  0.99987363  0.86513116  0.91822588    -0.86400
O35         O  0.00702163  0.86371809  0.07496989    -0.87800
Zr36       Zr  0.00053774  0.99980127  0.90159576     2.83100
Zr37       Zr  0.00132715  0.00040483  0.09462364     2.83500
Zr38       Zr  0.09796513  0.00322986  0.99818832     2.84100
Zr39       Zr  0.90464173  0.99599946  0.99854597     2.83400
Zr40       Zr  0.00513499  0.90339811  0.99739438     2.84200
O41         O  0.95553605  0.95001522  0.04624518    -1.08300
O42         O  0.05169112  0.95330158  0.94920569    -1.07800
C43         C  0.99760194  0.87968227  0.87425968     1.06800
C44         C  0.00720527  0.87741211  0.11902157     1.09500
C45         C  0.12234624  0.99821594  0.87606515     1.07000
C46         C  0.87777934  0.99710008  0.87751388     1.07400
C47         C  0.87959516  0.99530681  0.12021104     1.07000
C48         C  0.12193559  0.00857547  0.12124967     1.06500
C49         C  0.12907375  0.88299364  0.00333366     1.06900
C50         C  0.88443851  0.87301483  0.00658475     1.06400
H51         H  0.07172667  0.93473562  0.06654159     0.33100
O52         O  0.05110321  0.95358760  0.04627034    -1.29400
H53         H  0.93411293  0.92910283  0.93042276     0.33100
O54         O  0.95402262  0.94951334  0.94976128    -1.30800
O55         O  0.99740002  0.42162140  0.36316135    -0.86200
O56         O  0.99953900  0.42405375  0.63663204    -0.86400
O57         O  0.08111490  0.36514077  0.50097847    -0.88100
O58         O  0.92612249  0.36130227  0.50282243    -0.86800
O59         O  0.86684066  0.41817165  0.49963649    -0.86400
O60         O  0.13782944  0.42448738  0.49892942    -0.87800
O61         O  0.99644487  0.36601778  0.57935978    -0.86300
O62         O  0.99803248  0.36398588  0.42153194    -0.85900
Zr63       Zr  0.00199347  0.40289993  0.49984733     2.84300
O64         O  0.95312639  0.45075364  0.54772707    -1.07800
O65         O  0.04893908  0.45164142  0.45059776    -1.08600
C66         C  0.99633196  0.37769520  0.37733999     1.06900
C67         C  0.99668018  0.38010536  0.62342440     1.06800
C68         C  0.12479666  0.38041802  0.50025227     1.09800
C69         C  0.88200005  0.37458996  0.50171362     1.07600
H70         H  0.06965926  0.43216771  0.56825576     0.33100
O71         O  0.04961910  0.45170100  0.54804530    -1.28800
H72         H  0.93226929  0.43021244  0.43152308     0.32800
O73         O  0.95243004  0.45012503  0.45112945    -1.30500
O74         O  0.99678099  0.57779574  0.63422429    -0.86200
O75         O  0.00108177  0.57756622  0.36291335    -0.87700
O76         O  0.13612989  0.49961975  0.57640536    -0.86300
O77         O  0.86434106  0.49635928  0.57708256    -0.86400
O78         O  0.86292058  0.50199734  0.42284867    -0.86100
O79         O  0.13545818  0.49650235  0.42117454    -0.85900
O80         O  0.07559626  0.63595973  0.50023296    -0.86300
O81         O  0.91827784  0.63256024  0.49710244    -0.85700
O82         O  0.13486019  0.57898743  0.49814379    -0.88000
O83         O  0.86157611  0.57329188  0.50110110    -0.85900
O84         O  0.07848152  0.50315810  0.63420678    -0.86300
O85         O  0.07802392  0.49841021  0.36296264    -0.86100
O86         O  0.92039689  0.50125842  0.36464420    -0.85700
O87         O  0.92273981  0.49628751  0.63443069    -0.86100
O88         O  0.99707550  0.63593313  0.57651960    -0.86400
O89         O  0.00257143  0.63469346  0.42121269    -0.87800
Zr90       Zr  0.00047310  0.50020484  0.59532168     2.83100
Zr91       Zr  0.99959145  0.49940017  0.40234848     2.83500
Zr92       Zr  0.09639646  0.50064884  0.49885731     2.84100
Zr93       Zr  0.90363865  0.49749764  0.49953266     2.83400
Zr94       Zr  0.99818068  0.59585192  0.49895065     2.84200
O95         O  0.95054005  0.54691900  0.45072278    -1.08300
O96         O  0.04809279  0.54898509  0.54713580    -1.07800
C97         C  0.99601748  0.62182139  0.62054185     1.06800
C98         C  0.00297976  0.62148749  0.37704331     1.09500
C99         C  0.12261226  0.50145619  0.62049922     1.07000
C100        C  0.87856022  0.49570939  0.62094108     1.07400
C101        C  0.87625731  0.50272543  0.37871276     1.07000
C102        C  0.12214739  0.49693121  0.37701052     1.06500
C103        C  0.11982767  0.62260475  0.49925188     1.06900
C104        C  0.87453295  0.61734293  0.49890355     1.06400
H105        H  0.06745327  0.56792088  0.43071037     0.33100
O106        O  0.04735152  0.54813059  0.45062131    -1.29400
H107        H  0.93022112  0.56665002  0.56743470     0.33100
O108        O  0.95063470  0.54719875  0.54752642    -1.30800
O109        O  0.63858995  0.99951776  0.42168493    -0.86200
O110        O  0.36560335  0.00688036  0.42016930    -0.86400
O111        O  0.49747869  0.92581931  0.35964802    -0.88100
O112        O  0.49997765  0.08000160  0.36244000    -0.86800
O113        O  0.50102347  0.13699696  0.42101021    -0.86400
O114        O  0.49809414  0.86652787  0.41622816    -0.87800
O115        O  0.42338724  0.00887892  0.36160539    -0.86300
O116        O  0.58071837  0.00055279  0.36331746    -0.85900
Zr117      Zr  0.50088870  0.00213500  0.40078666     2.84300
O118        O  0.45307533  0.05016879  0.44984906    -1.07800
O119        O  0.54810656  0.95203041  0.44803244    -1.08600
C120        C  0.62475790  0.99988880  0.37787318     1.06900
C121        C  0.37955036  0.00930044  0.37615181     1.06800
C122        C  0.49743483  0.88157802  0.37255512     1.09800
C123        C  0.50038108  0.12372476  0.37682773     1.07600
H124        H  0.43016494  0.93535183  0.42811638     0.33100
O125        O  0.45091598  0.95414407  0.44823233    -1.28800
H126        H  0.57067595  0.06829056  0.42935817     0.32800
O127        O  0.55045416  0.04851842  0.44914746    -1.30500
O128        O  0.36586410  0.00211436  0.57709661    -0.86200
O129        O  0.63713300  0.99629265  0.57477240    -0.87700
O130        O  0.41864512  0.86727050  0.49597901    -0.86300
O131        O  0.42628847  0.13817540  0.50030074    -0.86400
O132        O  0.58077592  0.13398644  0.49511542    -0.86100
O133        O  0.57662140  0.86314799  0.49206814    -0.85900
O134        O  0.49820796  0.91932324  0.63076050    -0.86300
O135        O  0.50292655  0.07527031  0.63362150    -0.85700
O136        O  0.49859465  0.86236091  0.57178469    -0.86800
O137        O  0.50649356  0.13405259  0.57626786    -0.85900
O138        O  0.36254019  0.92639078  0.50135672    -0.86300
O139        O  0.63501107  0.92037328  0.49128750    -0.86100
O140        O  0.63735621  0.07565342  0.49995243    -0.85700
O141        O  0.36730739  0.08161493  0.50303736    -0.86100
O142        O  0.42469914  0.99548690  0.63322377    -0.86400
O143        O  0.57926475  0.99673777  0.63286023    -0.87800
Zr144      Zr  0.40428009  0.00268948  0.49841900     2.83100
Zr145      Zr  0.59715637  0.99839521  0.49738655     2.83500
Zr146      Zr  0.49871715  0.90358553  0.49499284     2.84100
Zr147      Zr  0.50265314  0.09632073  0.49819251     2.83400
Zr148      Zr  0.50166837  0.99797008  0.59332105     2.84200
O149        O  0.55028207  0.04690818  0.54620044    -1.08300
O150        O  0.45205386  0.95201091  0.54456390    -1.07800
C151        C  0.38037904  0.99823002  0.62083282     1.06800
C152        C  0.62329692  0.99631671  0.61881071     1.09500
C153        C  0.37478957  0.88199528  0.49950518     1.07000
C154        C  0.38197411  0.12537232  0.50253367     1.07400
C155        C  0.62463951  0.11991061  0.49736247     1.07000
C156        C  0.62096846  0.87652275  0.49043054     1.06500
C157        C  0.49783081  0.87569256  0.61594188     1.06900
C158        C  0.50528137  0.11928627  0.61994470     1.06400
H159        H  0.56849934  0.92842942  0.56383124     0.33100
O160        O  0.54876078  0.94914751  0.54450583    -1.29400
H161        H  0.43478901  0.06863686  0.56763405     0.33100
O162        O  0.45396335  0.04874625  0.54694365    -1.30800
O163        O  0.42439449  0.36277355  0.99943267    -0.86200
O164        O  0.42200664  0.63413606  0.00163804    -0.86400
O165        O  0.36513956  0.49920566  0.07553821    -0.88100
O166        O  0.36449744  0.49961983  0.92145928    -0.86800
O167        O  0.42219614  0.49880957  0.86288858    -0.86400
O168        O  0.42348045  0.50237449  0.13298352    -0.87800
O169        O  0.36466055  0.57548662  0.00149501    -0.86300
O170        O  0.36666113  0.42104862  0.00004285    -0.85900
Zr171      Zr  0.40513717  0.49874037  0.99822797     2.84300
O172        O  0.45210793  0.54699452  0.94855648    -1.07800
O173        O  0.45372839  0.45091798  0.04652105    -1.08600
C174        C  0.38039631  0.37708849  0.00010100     1.06900
C175        C  0.37810927  0.61946857  0.00334386     1.06800
C176        C  0.37928532  0.50103324  0.11939793     1.09800
C177        C  0.37836366  0.49959693  0.87750584     1.07600
H178        H  0.43350433  0.56798708  0.06551587     0.33100
O179        O  0.45314063  0.54810327  0.04528979    -1.28800
H180        H  0.43271015  0.42982924  0.92979922     0.32800
O181        O  0.45265655  0.44990740  0.94949112    -1.30500
O182        O  0.57848663  0.63453096  0.00460268    -0.86200
O183        O  0.58112616  0.36549334  0.99851470    -0.87700
O184        O  0.50330264  0.57866142  0.13227710    -0.86300
O185        O  0.49953073  0.57390439  0.85868124    -0.86400
O186        O  0.50400003  0.42078710  0.86172939    -0.86100
O187        O  0.50142879  0.42321522  0.13369232    -0.85900
O188        O  0.63746011  0.49995002  0.07418757    -0.86300
O189        O  0.63624806  0.49606337  0.91915097    -0.85700
O190        O  0.57977060  0.50334044  0.13257062    -0.86800
O191        O  0.57801638  0.49744484  0.86121724    -0.85900
O192        O  0.50484578  0.63493834  0.07345197    -0.86300
O193        O  0.50212268  0.36461392  0.07647009    -0.86100
O194        O  0.50337780  0.36293181  0.91949664    -0.85700
O195        O  0.49948789  0.63286788  0.91539562    -0.86100
O196        O  0.63644241  0.57712333  0.00281007    -0.86400
O197        O  0.63843870  0.42303275  0.00194952    -0.87800
Zr198      Zr  0.50069005  0.59593126  0.99563616     2.83100
Zr199      Zr  0.50200404  0.40261146  0.99784942     2.83500
Zr200      Zr  0.50158986  0.50052782  0.09378184     2.84100
Zr201      Zr  0.50072942  0.49825614  0.90103851     2.83400
Zr202      Zr  0.59751639  0.49950971  0.99701725     2.84200
O203        O  0.54985400  0.45057352  0.94907001    -1.08300
O204        O  0.54884979  0.54786066  0.04407998    -1.07800
C205        C  0.62261200  0.62090593  0.00714646     1.06800
C206        C  0.62523413  0.37897181  0.00154479     1.09500
C207        C  0.50496988  0.62246960  0.11791702     1.07000
C208        C  0.49908995  0.61808666  0.87140228     1.07400
C209        C  0.50433457  0.37671383  0.87525871     1.07000
C210        C  0.50181370  0.37912042  0.12031228     1.06500
C211        C  0.62366597  0.50225349  0.11809416     1.06900
C212        C  0.62195427  0.49602000  0.87529156     1.06400
H213        H  0.56982448  0.43209533  0.06638665     0.33100
O214        O  0.54978476  0.45153073  0.04607122    -1.29400
H215        H  0.56976674  0.56756895  0.92773142     0.33100
O216        O  0.54973612  0.54779515  0.94771426    -1.30800
C217        C  0.47304815  0.23856969  0.30834271    -0.05200
C218        C  0.50366896  0.23383412  0.26862215     0.08900
C219        C  0.53318963  0.19338640  0.26431926    -0.02600
C220        C  0.53118730  0.15692640  0.29891340    -0.00900
C221        C  0.50110926  0.16167197  0.33947382    -0.04500
C222        C  0.47204787  0.20293403  0.34397328     0.02500
C223        C  0.50368925  0.27093787  0.23037171     0.09400
C224        C  0.56597503  0.18944112  0.22428150     0.35300
C225        C  0.43915970  0.20790948  0.38379960     0.38700
C226        C  0.53387837  0.31091966  0.23405352    -0.04800
C227        C  0.53338564  0.34629136  0.19819232     0.02300
C228        C  0.50220203  0.34204851  0.15848126    -0.04400
C229        C  0.47145521  0.30202863  0.15545441    -0.00700
C230        C  0.47294390  0.26622270  0.19081562    -0.03200
C231        C  0.56583501  0.31521095  0.27466652     0.36000
C232        C  0.43651982  0.29847816  0.11733798     0.39600
C233        C  0.56566499  0.38652953  0.20216859     0.38800
C234        C  0.44302483  0.22416776  0.18648948     0.35700
C235        C  0.44221857  0.28009500  0.31211228     0.36400
C236        C  0.56013080  0.11452057  0.29207276     0.39600
N237        N  0.59132338  0.41863082  0.20604183    -0.38400
N238        N  0.59129303  0.31841253  0.30709023    -0.40000
N239        N  0.40820982  0.29527745  0.08738400    -0.37800
N240        N  0.41953341  0.19038817  0.18296423    -0.40200
N241        N  0.59246501  0.18614527  0.19266972    -0.39900
N242        N  0.58258631  0.08047628  0.28550988    -0.37600
N243        N  0.41261288  0.21220666  0.41524112    -0.38600
N244        N  0.41768135  0.31325620  0.31486020    -0.40300
C245        C  0.51792042  0.68809188  0.23840696    -0.05200
C246        C  0.50203574  0.73424334  0.22641691     0.08900
C247        C  0.48912794  0.74458147  0.17890592    -0.02600
C248        C  0.49328260  0.70946666  0.14313621    -0.00900
C249        C  0.50606343  0.66154741  0.15520801    -0.04500
C250        C  0.51858406  0.65156916  0.20371630     0.02500
C251        C  0.50005038  0.77250496  0.26370048     0.09400
C252        C  0.47088871  0.79167384  0.16684878     0.35300
C253        C  0.53344821  0.60429390  0.21894738     0.38700
C254        C  0.53113094  0.81202743  0.26067544    -0.04800
C255        C  0.52800545  0.84911573  0.29434967     0.02300
C256        C  0.49695238  0.84494463  0.33414519    -0.04400
C257        C  0.46605535  0.80504615  0.33737041    -0.00700
C258        C  0.46675914  0.76967998  0.30159608    -0.03200
C259        C  0.56668818  0.81443762  0.22288261     0.36000
C260        C  0.43199251  0.80115533  0.37634749     0.39600
C261        C  0.55597855  0.89196255  0.28672321     0.38800
C262        C  0.43296242  0.73044027  0.30355935     0.35700
C263        C  0.53391211  0.67834657  0.28686232     0.36400
C264        C  0.48304676  0.72368364  0.09426711     0.39600
N265        N  0.57726208  0.92649617  0.27902100    -0.38400
N266        N  0.59487730  0.81640795  0.19264583    -0.40000
N267        N  0.40478218  0.79777476  0.40734197    -0.37800
N268        N  0.40620122  0.69899842  0.30512824    -0.40200
N269        N  0.45655166  0.82923363  0.15727545    -0.39900
N270        N  0.47459040  0.73542672  0.05551583    -0.37600
N271        N  0.54557628  0.56697745  0.23196418    -0.38600
N272        N  0.54638590  0.67091737  0.32558755    -0.40300
C273        C  0.53445059  0.76894650  0.69160036    -0.05200
C274        C  0.49613886  0.76627273  0.72444699     0.08900
C275        C  0.45819099  0.79935456  0.72132843    -0.02600
C276        C  0.45836502  0.83471225  0.68538601    -0.00900
C277        C  0.49693742  0.83773094  0.65286437    -0.04500
C278        C  0.53512962  0.80487023  0.65626608     0.02500
C279        C  0.49593831  0.72840196  0.76228215     0.09400
C280        C  0.41904575  0.79704081  0.75528485     0.35300
C281        C  0.57625115  0.80937129  0.62487439     0.38700
C282        C  0.52499988  0.73327292  0.80306865    -0.04800
C283        C  0.52799809  0.69594262  0.83672095     0.02300
C284        C  0.49894394  0.65492163  0.83240581    -0.04400
C285        C  0.47148592  0.64915621  0.79006214    -0.00700
C286        C  0.46961507  0.68606090  0.75558229    -0.03200
C287        C  0.55255786  0.77653006  0.81006635     0.36000
C288        C  0.44756953  0.60447266  0.77980910     0.39600
C289        C  0.56677880  0.69614338  0.87084862     0.38800
C290        C  0.44113113  0.68031471  0.71262622     0.35700
C291        C  0.57322964  0.73461191  0.69418367     0.36400
C292        C  0.41815360  0.86714393  0.68112709     0.39600
N293        N  0.59956190  0.69489549  0.89592865    -0.38400
N294        N  0.57440990  0.81106689  0.81591720    -0.40000
N295        N  0.42932108  0.56873225  0.77013559    -0.37800
N296        N  0.41840158  0.67593980  0.67836993    -0.40200
N297        N  0.38781299  0.79523689  0.78238444    -0.39900
N298        N  0.38576249  0.89263961  0.67778796    -0.37600
N299        N  0.60934468  0.81321648  0.60030160    -0.38600
N300        N  0.60417980  0.70722706  0.69613131    -0.40300
C301        C  0.46366484  0.20299331  0.71795383    -0.05200
C302        C  0.50580011  0.22923249  0.72711010     0.08900
C303        C  0.54769722  0.21940431  0.70057764    -0.02600
C304        C  0.54809739  0.18205500  0.66688421    -0.00900
C305        C  0.50580372  0.15630834  0.65742889    -0.04500
C306        C  0.46330982  0.16759373  0.68222503     0.02500
C307        C  0.50597225  0.26733360  0.76472152     0.09400
C308        C  0.58992426  0.24873436  0.70692477     0.35300
C309        C  0.41874340  0.14455191  0.66912527     0.38700
C310        C  0.52954765  0.25950021  0.80851431    -0.04800
C311        C  0.53011845  0.29534384  0.84395018     0.02300
C312        C  0.50552366  0.33917868  0.83676145    -0.04400
C313        C  0.48184990  0.34667662  0.79231327    -0.00700
C314        C  0.48211322  0.31092885  0.75676991    -0.03200
C315        C  0.55226628  0.21373937  0.81745859     0.36000
C316        C  0.45635980  0.39075754  0.78262113     0.39600
C317        C  0.55789253  0.28723740  0.88686916     0.38800
C318        C  0.45669575  0.31841141  0.71212973     0.35700
C319        C  0.42056919  0.21310274  0.74499350     0.36400
C320        C  0.59220277  0.16968382  0.64246920     0.39600
N321        N  0.58048134  0.28019255  0.92074828    -0.38400
N322        N  0.57000219  0.17704196  0.82432540    -0.40000
N323        N  0.43630877  0.42589780  0.77411440    -0.37800
N324        N  0.43592104  0.32370691  0.67675880    -0.40200
N325        N  0.62344387  0.27247442  0.71158265    -0.39900
N326        N  0.62760916  0.15969641  0.62349397    -0.37600
N327        N  0.38315508  0.12673884  0.65788733    -0.38600
N328        N  0.38648507  0.22190886  0.76676060    -0.40300
C329        C  0.80088605  0.27422469  0.54356372    -0.05200
C330        C  0.77544394  0.26426173  0.50120182     0.08900
C331        C  0.78618681  0.28944863  0.45887221    -0.02600
C332        C  0.82214260  0.32455710  0.45888932    -0.00900
C333        C  0.84578766  0.33632785  0.50172120    -0.04500
C334        C  0.83577068  0.31056361  0.54394117     0.02500
C335        C  0.73709609  0.22721279  0.50086209     0.09400
C336        C  0.76005827  0.27922566  0.41533757     0.35300
C337        C  0.86110933  0.32168671  0.58773574     0.38700
C338        C  0.68976876  0.23990298  0.51217114    -0.04800
C339        C  0.65290579  0.20562859  0.51015054     0.02300
C340        C  0.66326287  0.15745320  0.49717913    -0.04400
C341        C  0.71119585  0.14570607  0.48412490    -0.00700
C342        C  0.74769140  0.18035004  0.48651031    -0.03200
C343        C  0.67896395  0.28889172  0.52512890     0.36000
C344        C  0.72354851  0.09869161  0.46620341     0.39600
C345        C  0.60449749  0.22121211  0.52088131     0.38800
C346        C  0.79640394  0.16811687  0.47324361     0.35700
C347        C  0.79122428  0.24690503  0.58654653     0.36400
C348        C  0.83656569  0.34692188  0.41441669     0.39600
N349        N  0.56593841  0.23409086  0.52882706    -0.38400
N350        N  0.67039319  0.32797410  0.53527745    -0.40000
N351        N  0.73373036  0.06138394  0.45172697    -0.37800
N352        N  0.83521651  0.15850832  0.46249577    -0.40200
N353        N  0.73901581  0.27115450  0.38070077    -0.39900
N354        N  0.84863730  0.36430291  0.37889602    -0.37600
N355        N  0.88117065  0.33063562  0.62273144    -0.38600
N356        N  0.78364809  0.22491463  0.62074894    -0.40300
C357        C  0.79039444  0.71168575  0.44977210    -0.05200
C358        C  0.76376085  0.72411488  0.49080257     0.08900
C359        C  0.77134558  0.69906126  0.53397079    -0.02600
C360        C  0.80679731  0.66322925  0.53662650    -0.00900
C361        C  0.83568331  0.65324137  0.49638221    -0.04500
C362        C  0.82585428  0.67598580  0.45248786     0.02500
C363        C  0.72787239  0.76383653  0.48882355     0.09400
C364        C  0.74214696  0.70997289  0.57543238     0.35300
C365        C  0.85001587  0.66020826  0.40942324     0.38700
C366        C  0.68318101  0.75708417  0.46659163    -0.04800
C367        C  0.65003846  0.79500794  0.46378153     0.02300
C368        C  0.65888607  0.83855760  0.48801098    -0.04400
C369        C  0.70419107  0.84509960  0.51029353    -0.00700
C370        C  0.73880057  0.80837016  0.50933142    -0.03200
C371        C  0.67090738  0.71063011  0.44744755     0.36000
C372        C  0.71575148  0.88917652  0.53483261     0.39600
C373        C  0.60887431  0.79010052  0.43264144     0.38800
C374        C  0.78595892  0.81618293  0.52961326     0.35700
C375        C  0.78099904  0.73524334  0.40458634     0.36400
C376        C  0.81274535  0.63614309  0.58044419     0.39600
N377        N  0.57693535  0.78616221  0.40665958    -0.38400
N378        N  0.66098167  0.67339015  0.43272191    -0.40000
N379        N  0.72545309  0.92429499  0.55421550    -0.37800
N380        N  0.82369683  0.82214273  0.54550975    -0.40200
N381        N  0.71866895  0.71892800  0.60829180    -0.39900
N382        N  0.81668755  0.61453154  0.61549043    -0.37600
N383        N  0.86877470  0.64694781  0.37505609    -0.38600
N384        N  0.77339065  0.75359250  0.36831430    -0.40300
C385        C  0.21052233  0.28634541  0.54706910    -0.05200
C386        C  0.23691521  0.27524546  0.50548958     0.08900
C387        C  0.22781054  0.30043077  0.46265607    -0.02600
C388        C  0.19081183  0.33460014  0.46075510    -0.00900
C389        C  0.16355207  0.34458176  0.50198739    -0.04500
C390        C  0.17498941  0.32205405  0.54561732     0.02500
C391        C  0.27387563  0.23652746  0.50630728     0.09400
C392        C  0.25687787  0.29133293  0.42066611     0.35300
C393        C  0.15234538  0.33789489  0.58947472     0.38700
C394        C  0.26490653  0.19316764  0.48258186    -0.04800
C395        C  0.30063145  0.15777060  0.48003344     0.02300
C396        C  0.34482838  0.16387038  0.50419336    -0.04400
C397        C  0.35316274  0.20719125  0.52919378    -0.00700
C398        C  0.31822666  0.24365502  0.52919385    -0.03200
C399        C  0.21864834  0.18512995  0.46045823     0.36000
C400        C  0.39726992  0.21471324  0.55546434     0.39600
C401        C  0.29248010  0.11645227  0.44996435     0.38800
C402        C  0.32805835  0.28895234  0.55223916     0.35700
C403        C  0.21977423  0.26085632  0.59123800     0.36400
C404        C  0.18122277  0.35993737  0.41654555     0.39600
N405        N  0.28587147  0.08383963  0.42557569    -0.38400
N406        N  0.18169281  0.17886871  0.44294758    -0.40000
N407        N  0.43227410  0.22152705  0.57643536    -0.37800
N408        N  0.33571639  0.32513150  0.57054108    -0.40200
N409        N  0.28021572  0.28396700  0.38731631    -0.39900
N410        N  0.17383440  0.38017528  0.38124695    -0.37600
N411        N  0.13491840  0.35135193  0.62446829    -0.38600
N412        N  0.22722317  0.24049263  0.62645665    -0.40300
C413        C  0.20424621  0.71874451  0.54405996    -0.05200
C414        C  0.22470440  0.73542095  0.50094296     0.08900
C415        C  0.20952687  0.71556690  0.45704693    -0.02600
C416        C  0.17565174  0.67816992  0.45649647    -0.00900
C417        C  0.15628432  0.66087427  0.49972191    -0.04500
C418        C  0.17013054  0.68166138  0.54339041     0.02500
C419        C  0.26259226  0.77349779  0.50182687     0.09400
C420        C  0.22819183  0.73417700  0.41241843     0.35300
C421        C  0.14892139  0.66498555  0.58767681     0.38700
C422        C  0.30945717  0.76242824  0.51683467    -0.04800
C423        C  0.34491772  0.79826178  0.51896756     0.02300
C424        C  0.33544656  0.84503289  0.50150318    -0.04400
C425        C  0.28794131  0.85575981  0.48612707    -0.00700
C426        C  0.25167137  0.82061673  0.48799844    -0.03200
C427        C  0.32156542  0.71366584  0.52948137     0.36000
C428        C  0.27547031  0.90261260  0.46779139     0.39600
C429        C  0.39025555  0.78683944  0.54156011     0.38800
C430        C  0.20265466  0.83303671  0.47609987     0.35700
C431        C  0.21756544  0.74035256  0.58914317     0.36400
C432        C  0.16005998  0.65781856  0.41148770     0.39600
N433        N  0.42602758  0.77736569  0.56012306    -0.38400
N434        N  0.33169246  0.67481344  0.53920841    -0.40000
N435        N  0.26494087  0.93993530  0.45346024    -0.37800
N436        N  0.16352482  0.84301843  0.46694685    -0.40200
N437        N  0.24261475  0.74947900  0.37679523    -0.39900
N438        N  0.14743363  0.64127320  0.37580851    -0.37600
N439        N  0.13187022  0.65171571  0.62293959    -0.38600
N440        N  0.22784630  0.75738649  0.62532701    -0.40300
C441        C  0.81118800  0.53109403  0.26139538    -0.05200
C442        C  0.76781846  0.50609847  0.26734207     0.08900
C443        C  0.75883740  0.48186437  0.31056661    -0.02600
C444        C  0.79300885  0.48236099  0.34771223    -0.00900
C445        C  0.83793538  0.50535767  0.34112271    -0.04500
C446        C  0.84611358  0.53064035  0.29783048     0.02500
C447        C  0.73128339  0.50543179  0.22812441     0.09400
C448        C  0.71438847  0.45566052  0.31638258     0.35300
C449        C  0.88966958  0.55795988  0.29092627     0.38700
C450        C  0.72435364  0.46368808  0.20073751    -0.04800
C451        C  0.69003417  0.46306500  0.16381615     0.02300
C452        C  0.66147232  0.50367521  0.15502882    -0.04400
C453        C  0.66896780  0.54563911  0.18170299    -0.00700
C454        C  0.70332009  0.54636177  0.21855690    -0.03200
C455        C  0.75148506  0.42091032  0.21171126     0.36000
C456        C  0.64341003  0.58892496  0.16921331     0.39600
C457        C  0.68353233  0.42040588  0.13529349     0.38800
C458        C  0.70939469  0.58900694  0.24717056     0.35700
C459        C  0.81997176  0.55735183  0.21750779     0.36400
C460        C  0.78102520  0.45920063  0.39253691     0.39600
N461        N  0.67822320  0.38645327  0.11247872    -0.38400
N462        N  0.77261095  0.38670033  0.22134996    -0.40000
N463        N  0.62382453  0.62373376  0.15858730    -0.37800
N464        N  0.71422932  0.62302564  0.27000909    -0.40200
N465        N  0.67920019  0.43426757  0.32028508    -0.39900
N466        N  0.77052633  0.44131152  0.42833165    -0.37600
N467        N  0.92424264  0.57987427  0.28500509    -0.38600
N468        N  0.82695428  0.57867058  0.18275919    -0.40300
C469        C  0.24061651  0.52068372  0.31167601    -0.05200
C470        C  0.23303580  0.49723854  0.26790470     0.08900
C471        C  0.19048411  0.47129784  0.26072594    -0.02600
C472        C  0.15426787  0.47110060  0.29602896    -0.00900
C473        C  0.16080800  0.49613766  0.33964471    -0.04500
C474        C  0.20512267  0.51983159  0.34755792     0.02500
C475        C  0.27067491  0.49868176  0.22975294     0.09400
C476        C  0.18518882  0.44308534  0.21763450     0.35300
C477        C  0.21505564  0.54340703  0.39257726     0.38700
C478        C  0.31138932  0.46915449  0.23325997    -0.04800
C479        C  0.34682799  0.47022717  0.19744482     0.02300
C480        C  0.34186397  0.50075562  0.15740515    -0.04400
C481        C  0.30075170  0.53021660  0.15384030    -0.00700
C482        C  0.26559730  0.52947071  0.19012262    -0.03200
C483        C  0.31684358  0.43733888  0.27381767     0.36000
C484        C  0.29456863  0.56198873  0.11338937     0.39600
C485        C  0.38755623  0.43834705  0.20132178     0.38800
C486        C  0.22444872  0.56097996  0.18708001     0.35700
C487        C  0.28568317  0.54496783  0.32010956     0.36400
C488        C  0.11142469  0.44301730  0.28809373     0.39600
N489        N  0.41988983  0.41281458  0.20495235    -0.38400
N490        N  0.32175644  0.41195353  0.30608165    -0.40000
N491        N  0.28868312  0.58725957  0.08122099    -0.37800
N492        N  0.19180421  0.58629683  0.18454695    -0.40200
N493        N  0.18184309  0.42029877  0.18336874    -0.39900
N494        N  0.07731262  0.42052929  0.28175122    -0.37600
N495        N  0.22368180  0.56163330  0.42861634    -0.38600
N496        N  0.32183200  0.56385143  0.32695082    -0.40300
C497        C  0.28716159  0.54506720  0.78815702    -0.05200
C498        C  0.26920378  0.50186658  0.76940667     0.08900
C499        C  0.28701692  0.45790532  0.78682086    -0.02600
C500        C  0.32137314  0.45727383  0.82361500    -0.00900
C501        C  0.34070908  0.50041170  0.84066558    -0.04500
C502        C  0.32395974  0.54430589  0.82250583     0.02500
C503        C  0.23156756  0.50255929  0.73132545     0.09400
C504        C  0.27058352  0.41328629  0.76640441     0.35300
C505        C  0.34445968  0.58881284  0.83916513     0.38700
C506        C  0.24257569  0.51910103  0.68500636    -0.04800
C507        C  0.20695352  0.52033251  0.64928057     0.02300
C508        C  0.16060159  0.50137578  0.65845602    -0.04400
C509        C  0.15088088  0.48230026  0.70457578    -0.00700
C510        C  0.18519333  0.48556713  0.74128876    -0.03200
C511        C  0.29092933  0.53463114  0.67406027     0.36000
C512        C  0.10699356  0.45633817  0.71422664     0.39600
C513        C  0.21859842  0.54184083  0.60351526     0.38800
C514        C  0.17263643  0.47157499  0.78967333     0.35700
C515        C  0.26749762  0.59037386  0.77249738     0.36400
C516        C  0.33646456  0.41223600  0.84427145     0.39600
N517        N  0.22832948  0.55898292  0.56714113    -0.38400
N518        N  0.32951582  0.54699437  0.66558426    -0.40000
N519        N  0.07260622  0.43486654  0.72246506    -0.37800
N520        N  0.16251589  0.46064512  0.82825914    -0.40200
N521        N  0.25764995  0.37762481  0.75016531    -0.39900
N522        N  0.34800064  0.37622509  0.86090429    -0.37600
N523        N  0.36049906  0.62453009  0.85223208    -0.38600
N524        N  0.25201467  0.62666623  0.76019654    -0.40300
C525        C  0.72959155  0.45665810  0.80278111    -0.05200
C526        C  0.73261658  0.49373732  0.76882335     0.08900
C527        C  0.69901176  0.53126997  0.76942707    -0.02600
C528        C  0.66285033  0.53215744  0.80442044    -0.00900
C529        C  0.65928752  0.49467970  0.83798843    -0.04500
C530        C  0.69211536  0.45640181  0.83639653     0.02500
C531        C  0.77068810  0.49304407  0.73157973     0.09400
C532        C  0.70202513  0.56905544  0.73405628     0.35300
C533        C  0.68575339  0.41542431  0.86740689     0.38700
C534        C  0.76400381  0.46646386  0.68950006    -0.04800
C535        C  0.79926555  0.46677880  0.65349927     0.02300
C536        C  0.84121597  0.49474304  0.65898818    -0.04400
C537        C  0.84702985  0.52227891  0.70109140    -0.00700
C538        C  0.81211981  0.52090488  0.73736105    -0.03200
C539        C  0.72006184  0.43969265  0.68290883     0.36000
C540        C  0.88773534  0.55386632  0.70666865     0.39600
C541        C  0.79202186  0.43781800  0.61121920     0.38800
C542        C  0.81816635  0.54905160  0.78040830     0.35700
C543        C  0.76542560  0.41919188  0.80361155     0.36400
C544        C  0.63014273  0.57225903  0.80659962     0.39600
N545        N  0.78545594  0.41482565  0.57757537    -0.38400
N546        N  0.68482894  0.41867977  0.67772146    -0.40000
N547        N  0.91993986  0.57927605  0.71161457    -0.37800
N548        N  0.82276221  0.57159320  0.81468533    -0.40200
N549        N  0.70477081  0.59898941  0.70567113    -0.39900
N550        N  0.60422117  0.60439138  0.80831303    -0.37600
N551        N  0.68026894  0.38206807  0.89114766    -0.38600
N552        N  0.79412372  0.38942993  0.80491102    -0.40300
C553        C  0.77335697  0.80252340  0.04521243    -0.05200
C554        C  0.77700617  0.76132777  0.01656951     0.08900
C555        C  0.81803764  0.75475153  0.98793237    -0.02600
C556        C  0.85466461  0.78944177  0.98735518    -0.00900
C557        C  0.84855659  0.83346077  0.01175443    -0.04500
C558        C  0.80817194  0.83882948  0.04202146     0.02500
C559        C  0.73711278  0.72544053  0.01630663     0.09400
C560        C  0.82231269  0.71250138  0.95834786     0.35300
C561        C  0.80318669  0.88021191  0.07248461     0.38700
C562        C  0.69174363  0.73844439  0.99854180    -0.04800
C563        C  0.65288973  0.70664630  0.00192558     0.02300
C564        C  0.66067590  0.65820736  0.01491936    -0.04400
C565        C  0.70615981  0.64570068  0.03429118    -0.00700
C566        C  0.74358826  0.67953745  0.03597057    -0.03200
C567        C  0.68527563  0.78430572  0.97524646     0.36000
C568        C  0.71452486  0.59906578  0.05528032     0.39600
C569        C  0.60510273  0.72552113  0.99465693     0.38800
C570        C  0.78897844  0.66696337  0.05788805     0.35700
C571        C  0.73376651  0.80733327  0.07854665     0.36400
C572        C  0.89912240  0.77843081  0.96299020     0.39600
N573        N  0.56719037  0.74133993  0.98941065    -0.38400
N574        N  0.68025301  0.82057480  0.95609083    -0.40000
N575        N  0.72239374  0.56224778  0.07230197    -0.37800
N576        N  0.82514790  0.65661461  0.07516741    -0.40200
N577        N  0.82580051  0.67879637  0.93479198    -0.39900
N578        N  0.93491837  0.76871465  0.94459455    -0.37600
N579        N  0.79770110  0.91233728  0.09772395    -0.38600
N580        N  0.70230881  0.81124860  0.10516482    -0.40300
C581        C  0.78884340  0.21288192  0.95661778    -0.05200
C582        C  0.76940854  0.22776393  0.00057165     0.08900
C583        C  0.78515084  0.20647405  0.04353405    -0.02600
C584        C  0.81953791  0.16969323  0.04241066    -0.00900
C585        C  0.83853261  0.15437246  0.99832829    -0.04500
C586        C  0.82385873  0.17684241  0.95567698     0.02500
C587        C  0.73296679  0.26667544  0.00179537     0.09400
C588        C  0.76678592  0.22348321  0.08888767     0.35300
C589        C  0.84558924  0.16406200  0.91074025     0.38700
C590        C  0.68489906  0.25581798  0.01164353    -0.04800
C591        C  0.65056007  0.29249390  0.01468576     0.02300
C592        C  0.66330882  0.34074800  0.00445326    -0.04400
C593        C  0.71269314  0.35133586  0.99634096    -0.00700
C594        C  0.74691814  0.31433866  0.99463848    -0.03200
C595        C  0.67074592  0.20638360  0.01820794     0.36000
C596        C  0.72965184  0.39990291  0.99016217     0.39600
C597        C  0.60275130  0.27980505  0.03059439     0.38800
C598        C  0.79685816  0.32511135  0.98490613     0.35700
C599        C  0.77337342  0.23527017  0.91240848     0.36400
C600        C  0.83678506  0.14902231  0.08670800     0.39600
N601        N  0.56470862  0.26946388  0.04326076    -0.38400
N602        N  0.65970093  0.16693048  0.02331802    -0.40000
N603        N  0.74408872  0.43830569  0.98537093    -0.37800
N604        N  0.83660180  0.33332041  0.97669095    -0.40200
N605        N  0.75193943  0.23740180  0.12485664    -0.39900
N606        N  0.85046356  0.13266956  0.12214412    -0.37600
N607        N  0.86242122  0.15510858  0.87420854    -0.38600
N608        N  0.76139422  0.25331610  0.87716763    -0.40300
C609        C  0.31064387  0.72837890  0.04819092    -0.05200
C610        C  0.27381258  0.73239263  0.01392338     0.08900
C611        C  0.26835375  0.69635988  0.97914897    -0.02600
C612        C  0.30064655  0.65776590  0.97741893    -0.00900
C613        C  0.34019366  0.65629673  0.00870856    -0.04500
C614        C  0.34258697  0.68943437  0.04651702     0.02500
C615        C  0.23856821  0.77266661  0.01596837     0.09400
C616        C  0.22935144  0.69901912  0.94508421     0.35300
C617        C  0.37194106  0.67852701  0.08772327     0.38700
C618        C  0.25097048  0.81816141  0.99863568    -0.04800
C619        C  0.21632340  0.85491618  0.99634841     0.02300
C620        C  0.16781374  0.84577696  0.00945440    -0.04400
C621        C  0.15676940  0.80050440  0.02992887    -0.00700
C622        C  0.19203550  0.76460444  0.03343568    -0.03200
C623        C  0.29962416  0.82687594  0.98266173     0.36000
C624        C  0.10961850  0.79043420  0.04920018     0.39600
C625        C  0.23166565  0.90189954  0.98086497     0.38800
C626        C  0.18048088  0.71904338  0.05538707     0.35700
C627        C  0.31526491  0.76385010  0.08552810     0.36400
C628        C  0.29040688  0.61753425  0.94674466     0.39600
N629        N  0.24465469  0.93923327  0.96883277    -0.38400
N630        N  0.33852075  0.83360409  0.97016592    -0.40000
N631        N  0.07225466  0.78147391  0.06459705    -0.37800
N632        N  0.17109033  0.68290449  0.07308716    -0.40200
N633        N  0.19818444  0.70117808  0.91797388    -0.39900
N634        N  0.28082550  0.58444353  0.92408373    -0.37600
N635        N  0.39313077  0.66800732  0.12161912    -0.38600
N636        N  0.31934583  0.79235239  0.11509482    -0.40300
C637        C  0.26557299  0.31070651  0.03099610    -0.05200
C638        C  0.26601862  0.27390521  0.99676206     0.08900
C639        C  0.30472825  0.26997231  0.96463354    -0.02600
C640        C  0.34315863  0.30237839  0.96700990    -0.00900
C641        C  0.34205284  0.34041065  0.00018717    -0.04500
C642        C  0.30289907  0.34441262  0.03213499     0.02500
C643        C  0.22764806  0.23683030  0.99723503     0.09400
C644        C  0.30512287  0.23212746  0.92932933     0.35300
C645        C  0.30126700  0.38241305  0.06721051     0.38700
C646        C  0.18133026  0.24735915  0.98045422    -0.04800
C647        C  0.14474588  0.21273155  0.98330233     0.02300
C648        C  0.15518914  0.16568000  0.99994127    -0.04400
C649        C  0.20214218  0.15591355  0.01715620    -0.00700
C650        C  0.23770112  0.19142216  0.01614241    -0.03200
C651        C  0.17167015  0.29368779  0.95918774     0.36000
C652        C  0.21440659  0.10995841  0.03779740     0.39600
C653        C  0.09670810  0.22658472  0.96911584     0.38800
C654        C  0.28514879  0.18130816  0.03480438     0.35700
C655        C  0.22733126  0.31293821  0.06606212     0.36400
C656        C  0.38318748  0.29681742  0.93444686     0.39600
N657        N  0.05851884  0.23834995  0.95818011    -0.38400
N658        N  0.16398189  0.33042857  0.94187678    -0.40000
N659        N  0.22490795  0.07348165  0.05415095    -0.37800
N660        N  0.32307488  0.17341714  0.04939329    -0.40200
N661        N  0.30554025  0.20181986  0.90132549    -0.39900
N662        N  0.41493007  0.29184676  0.90835692    -0.37600
N663        N  0.29919652  0.41266411  0.09518296    -0.38600
N664        N  0.19697155  0.31450532  0.09415177    -0.40300
C665        C  0.73448194  0.02894978  0.69074043    -0.05200
C666        C  0.73090461  0.99714086  0.72960716     0.08900
C667        C  0.69242833  0.96479527  0.73201501    -0.02600
C668        C  0.65752979  0.96416144  0.69566726    -0.00900
C669        C  0.66093187  0.99596194  0.65644095    -0.04500
C670        C  0.70007262  0.02795250  0.65393585     0.02500
C671        C  0.76836574  0.99698722  0.76769452     0.09400
C672        C  0.68905138  0.93200518  0.77202687     0.35300
C673        C  0.70503941  0.06045561  0.61394899     0.38700
C674        C  0.76003199  0.02042522  0.81135149    -0.04800
C675        C  0.79522442  0.01997815  0.84749045     0.02300
C676        C  0.83983460  0.99680176  0.83975668    -0.04400
C677        C  0.84787403  0.97345791  0.79543630    -0.00700
C678        C  0.81193320  0.97291674  0.76010651    -0.03200
C679        C  0.71492773  0.04500714  0.81892248     0.36000
C680        C  0.89272840  0.94921442  0.78572236     0.39600
C681        C  0.78531474  0.04442847  0.89206872     0.38800
C682        C  0.81929803  0.94663214  0.71606267     0.35700
C683        C  0.77328717  0.06329736  0.68911433     0.36400
C684        C  0.61928182  0.92931458  0.69791824     0.39600
N685        N  0.77676524  0.06365129  0.92761928    -0.38400
N686        N  0.67883967  0.06443041  0.82473790    -0.40000
N687        N  0.92846219  0.93023572  0.77701309    -0.37800
N688        N  0.82504474  0.92539310  0.68111495    -0.40200
N689        N  0.68659225  0.90609713  0.80415785    -0.39900
N690        N  0.58895219  0.90134388  0.70004066    -0.37600
N691        N  0.70991744  0.08636000  0.58213903    -0.38600
N692        N  0.80406698  0.09085994  0.68788481    -0.40300
C693        C  0.23162705  0.95965170  0.80496698    -0.05200
C694        C  0.23548357  0.99714916  0.77149017     0.08900
C695        C  0.20142655  0.03431286  0.77157077    -0.02600
C696        C  0.16292553  0.03331081  0.80405212    -0.00900
C697        C  0.15992539  0.99675352  0.83867921    -0.04500
C698        C  0.19355321  0.95913867  0.83801817     0.02500
C699        C  0.27321926  0.99584994  0.73365261     0.09400
C700        C  0.20655030  0.07401148  0.73863485     0.35300
C701        C  0.18558446  0.91722571  0.86732944     0.38700
C702        C  0.26148087  0.98040415  0.68730890    -0.04800
C703        C  0.29653318  0.97972446  0.65107192     0.02300
C704        C  0.34355547  0.99678870  0.66010632    -0.04400
C705        C  0.35522146  0.01127692  0.70754104    -0.00700
C706        C  0.32025828  0.01025502  0.74393844    -0.03200
C707        C  0.21303963  0.96470852  0.67708537     0.36000
C708        C  0.40298703  0.02740923  0.71987170     0.39600
C709        C  0.28420512  0.95858146  0.60555658     0.38800
C710        C  0.33259149  0.02408315  0.79232378     0.35700
C711        C  0.26676181  0.92154192  0.80532658     0.36400
C712        C  0.12520589  0.06853848  0.80009181     0.39600
N713        N  0.27377531  0.94115436  0.56966077    -0.38400
N714        N  0.17436208  0.95244925  0.66898091    -0.40000
N715        N  0.44109178  0.03991130  0.73007661    -0.37800
N716        N  0.34244069  0.03469802  0.83101065    -0.40200
N717        N  0.21095896  0.10590027  0.71270086    -0.39900
N718        N  0.09439059  0.09571564  0.79557389    -0.37600
N719        N  0.17781328  0.88293176  0.88901488    -0.38600
N720        N  0.29500646  0.89133689  0.80609327    -0.40300
C721        C  0.27446904  0.97062520  0.30028563    -0.05200
C722        C  0.26794038  0.01057886  0.27001414     0.08900
C723        C  0.29936429  0.04990371  0.27386522    -0.02600
C724        C  0.33522223  0.05031513  0.30935286    -0.00900
C725        C  0.34178053  0.01018501  0.33915272    -0.04500
C726        C  0.31277434  0.96963145  0.33292398     0.02500
C727        C  0.22993921  0.01013189  0.23216478     0.09400
C728        C  0.29592709  0.08910704  0.24010139     0.35300
C729        C  0.32544242  0.92548017  0.35690487     0.38700
C730        C  0.19047198  0.04158797  0.23477970    -0.04800
C731        C  0.15579267  0.04223097  0.19802904     0.02300
C732        C  0.15934869  0.01006181  0.15919051    -0.04400
C733        C  0.19798725  0.97751619  0.15779266    -0.00700
C734        C  0.23375950  0.97851334  0.19317678    -0.03200
C735        C  0.18548118  0.07314605  0.27553672     0.36000
C736        C  0.19930395  0.94027324  0.12208668     0.39600
C737        C  0.11710191  0.07671826  0.20003348     0.38800
C738        C  0.27457087  0.94664769  0.18942295     0.35700
C739        C  0.24246029  0.93004543  0.29732448     0.36400
C740        C  0.36566336  0.09175258  0.31465114     0.39600
N741        N  0.08654825  0.10453044  0.20213456    -0.38400
N742        N  0.18170830  0.09832876  0.30804121    -0.40000
N743        N  0.20043514  0.90956251  0.09465324    -0.37800
N744        N  0.30688417  0.92097985  0.18644181    -0.40200
N745        N  0.29331360  0.12010324  0.21286039    -0.39900
N746        N  0.38972464  0.12506528  0.31840427    -0.37600
N747        N  0.33706405  0.89029198  0.37519663    -0.38600
N748        N  0.21723513  0.89741999  0.29503742    -0.40300
C749        C  0.71192845  0.95518378  0.28441891    -0.05200
C750        C  0.73275526  0.99828432  0.26844798     0.08900
C751        C  0.71962330  0.04179986  0.29028295    -0.02600
C752        C  0.68489516  0.04228000  0.32682935    -0.00900
C753        C  0.66295724  0.99934617  0.34142361    -0.04500
C754        C  0.67880611  0.95561495  0.32232290     0.02500
C755        C  0.77026605  0.99748319  0.23028003     0.09400
C756        C  0.74172643  0.08608485  0.27497681     0.35300
C757        C  0.66320986  0.91099060  0.34351583     0.38700
C758        C  0.76049951  0.01642075  0.18465941    -0.04800
C759        C  0.79604442  0.01616363  0.14893023     0.02300
C760        C  0.84159323  0.99527896  0.15795714    -0.04400
C761        C  0.85060766  0.97510170  0.20368305    -0.00700
C762        C  0.81568336  0.97773960  0.23993107    -0.03200
C763        C  0.71385038  0.03697306  0.17461124     0.36000
C764        C  0.89519334  0.95036766  0.21371476     0.39600
C765        C  0.78512910  0.03823889  0.10325230     0.38800
C766        C  0.82684744  0.96111688  0.28780085     0.35700
C767        C  0.72405912  0.91040306  0.26146054     0.36400
C768        C  0.67306293  0.08668923  0.35061890     0.39600
N769        N  0.77572821  0.05576482  0.06698379    -0.38400
N770        N  0.67693346  0.05387448  0.16651737    -0.40000
N771        N  0.93059408  0.93057145  0.22205544    -0.37800
N772        N  0.83567326  0.94816592  0.32607102    -0.40200
N773        N  0.75902467  0.12139709  0.26228747    -0.39900
N774        N  0.66403810  0.12217703  0.36967326    -0.37600
N775        N  0.65147943  0.87527852  0.36065545    -0.38600
N776        N  0.73343897  0.87461985  0.24313940    -0.40300
C777        C  0.96989593  0.31844460  0.74322083    -0.05200
C778        C  0.99269709  0.27420799  0.73671929     0.08900
C779        C  0.01536804  0.26386978  0.69306316    -0.02600
C780        C  0.01585867  0.29771754  0.65583736    -0.00900
C781        C  0.99400478  0.34304615  0.66211619    -0.04500
C782        C  0.97031072  0.35277186  0.70618675     0.02500
C783        C  0.99213781  0.23698230  0.77491531     0.09400
C784        C  0.03839246  0.21784162  0.68675083     0.35300
C785        C  0.94460469  0.39714012  0.71359955     0.38700
C786        C  0.95625861  0.20163914  0.77444553    -0.04800
C787        C  0.96015441  0.16136368  0.80441916     0.02300
C788        C  0.99832062  0.15790439  0.83730615    -0.04400
C789        C  0.03536139  0.19206453  0.83599097    -0.00700
C790        C  0.03170127  0.23216288  0.80581197    -0.03200
C791        C  0.91548007  0.20682729  0.74279807     0.36000
C792        C  0.08001958  0.18229272  0.86043371     0.39600
C793        C  0.92611781  0.12266692  0.79976516     0.38800
C794        C  0.06909918  0.26800926  0.80575475     0.35700
C795        C  0.94569128  0.32838323  0.78802829     0.36400
C796        C  0.03960449  0.28528088  0.61149417     0.39600
N797        N  0.89892921  0.09182928  0.79571116    -0.38400
N798        N  0.88284671  0.21147111  0.71778209    -0.40000
N799        N  0.11636965  0.17306404  0.87794851    -0.37800
N800        N  0.09880649  0.29673826  0.80595872    -0.40200
N801        N  0.05656471  0.18099563  0.68246436    -0.39900
N802        N  0.05831141  0.27460640  0.57620331    -0.37600
N803        N  0.92382681  0.43212597  0.72074362    -0.38600
N804        N  0.92630562  0.33639952  0.82367474    -0.40300
C805        C  0.95809270  0.73279279  0.69044135    -0.05200
C806        C  0.98677565  0.72905265  0.73177787     0.08900
C807        C  0.01728047  0.68920745  0.73727179    -0.02600
C808        C  0.02108949  0.65480526  0.70067684    -0.00900
C809        C  0.99300920  0.65890639  0.65871721    -0.04500
C810        C  0.96076294  0.69771226  0.65439963     0.02500
C811        C  0.98812112  0.76895438  0.76756299     0.09400
C812        C  0.04489329  0.68372255  0.78081968     0.35300
C813        C  0.92927349  0.70146763  0.61344668     0.38700
C814        C  0.94865329  0.77854281  0.79778535    -0.04800
C815        C  0.95084208  0.81645631  0.83095388     0.02300
C816        C  0.99336746  0.84309161  0.83615497    -0.04400
C817        C  0.03108004  0.83603724  0.80344455    -0.00700
C818        C  0.02883223  0.79876921  0.76978721    -0.03200
C819        C  0.90573916  0.74967075  0.79472196     0.36000
C820        C  0.07098361  0.86890222  0.80233748     0.39600
C821        C  0.90799062  0.83125350  0.85617700     0.38800
C822        C  0.06844111  0.79140906  0.73703991     0.35700
C823        C  0.92585049  0.77301329  0.68475088     0.36400
C824        C  0.05528132  0.61612449  0.70576710     0.39600
N825        N  0.87350878  0.84387530  0.87529647    -0.38400
N826        N  0.87126823  0.72696366  0.79224890    -0.40000
N827        N  0.10223643  0.89577249  0.79991371    -0.37800
N828        N  0.10022187  0.78547883  0.71119850    -0.40200
N829        N  0.06678487  0.67938677  0.81563604    -0.39900
N830        N  0.08264659  0.58537628  0.70979266    -0.37600
N831        N  0.90393215  0.70539798  0.58103597    -0.38600
N832        N  0.89970196  0.80474554  0.68031542    -0.40300
C833        C  0.98527082  0.74043424  0.31127597    -0.05200
C834        C  0.01107088  0.73257218  0.26881787     0.08900
C835        C  0.03598537  0.68936628  0.26247042    -0.02600
C836        C  0.03295029  0.65286131  0.29718385    -0.00900
C837        C  0.00629562  0.66003596  0.33985806    -0.04500
C838        C  0.98394786  0.70508767  0.34722766     0.02500
C839        C  0.01095142  0.76940168  0.22999087     0.09400
C840        C  0.06570181  0.68304578  0.22040751     0.35300
C841        C  0.95985393  0.71599038  0.39184332     0.38700
C842        C  0.04436255  0.80702721  0.23027145    -0.04800
C843        C  0.04367574  0.84186887  0.19370394     0.02300
C844        C  0.00944434  0.83936979  0.15648839    -0.04400
C845        C  0.97767802  0.79999146  0.15520645    -0.00700
C846        C  0.97784407  0.76582396  0.19227820    -0.03200
C847        C  0.07984728  0.80931775  0.26799021     0.36000
C848        C  0.94486855  0.79372823  0.11574475     0.39600
C849        C  0.08015946  0.87853533  0.19295674     0.38800
C850        C  0.94362396  0.72687745  0.19192033     0.35700
C851        C  0.95983214  0.78511348  0.31780625     0.36400
C852        C  0.05919288  0.60890316  0.28922498     0.39600
N853        N  0.10974888  0.90733871  0.19246680    -0.38400
N854        N  0.10812898  0.81081397  0.29812957    -0.40000
N855        N  0.91881111  0.78693810  0.08444912    -0.37800
N856        N  0.91630767  0.69587782  0.19182474    -0.40200
N857        N  0.08981630  0.67834156  0.18712468    -0.39900
N858        N  0.08037318  0.57416069  0.28202455    -0.37600
N859        N  0.94148415  0.72519024  0.42773718    -0.38600
N860        N  0.93945033  0.82068777  0.32295296    -0.40300
C861        C  0.00880276  0.24131837  0.18675643    -0.05200
C862        C  0.98300191  0.23219724  0.22901681     0.08900
C863        C  0.95793362  0.18893698  0.23388532    -0.02600
C864        C  0.96129726  0.15346308  0.19816254    -0.00900
C865        C  0.98892382  0.16140619  0.15621719    -0.04500
C866        C  0.01162268  0.20644376  0.15046591     0.02500
C867        C  0.98373536  0.26791251  0.26890446     0.09400
C868        C  0.92744427  0.18167181  0.27522196     0.35300
C869        C  0.03913417  0.21732561  0.10797047     0.38700
C870        C  0.95450562  0.30883953  0.26687252    -0.04800
C871        C  0.95923753  0.34511754  0.30149608     0.02300
C872        C  0.99205068  0.33989439  0.33988142    -0.04400
C873        C  0.02021234  0.29789327  0.34255773    -0.00700
C874        C  0.01614459  0.26227293  0.30714207    -0.03200
C875        C  0.91912338  0.31335586  0.22920268     0.36000
C876        C  0.05512824  0.29207749  0.38048091     0.39600
C877        C  0.92988773  0.38758742  0.29713939     0.38800
C878        C  0.04588441  0.21989022  0.30955508     0.35700
C879        C  0.03249433  0.28702548  0.18069539     0.36400
C880        C  0.93489503  0.10945480  0.20455510     0.39600
N881        N  0.90639636  0.42128155  0.29253395    -0.38400
N882        N  0.89059224  0.31697210  0.19946660    -0.40000
N883        N  0.08294883  0.28741900  0.41074095    -0.37800
N884        N  0.06945662  0.18597726  0.31140265    -0.40200
N885        N  0.90265176  0.17622759  0.30790041    -0.39900
N886        N  0.91360001  0.07458755  0.21046961    -0.37600
N887        N  0.06111424  0.22734963  0.07442627    -0.38600
N888        N  0.05099181  0.32364033  0.17589859    -0.40300
loop_ 
_geom_bond_atom_site_label_1 
_geom_bond_atom_site_label_2 
_geom_bond_distance 
_geom_bond_site_symmetry_2 
_ccdc_geom_bond_type 
O1          Zr37   2.461   1_655  S
O1           C12   1.297       .  A
O2          Zr36   2.434   1_645  S
O2           C13   1.290       .  A
O3           Zr9   2.432   1_454  S
O3           C14   1.290   1_554  A
O4           Zr9   2.424       .  S
O4           C15   1.289       .  A
O5          Zr39   2.454   1_545  S
O5           C15   1.294       .  A
O6          Zr38   2.447       .  S
O6           C14   1.294       .  A
O7           Zr9   2.450       .  S
O7           C13   1.294       .  A
O8           Zr9   2.446   1_554  S
O8           C12   1.293       .  A
Zr9          O10   2.342       .  S
Zr9          O11   2.341   1_656  S
Zr9          O19   2.346   1_556  S
Zr9          O17   2.341   1_655  S
O10         Zr36   2.338   1_645  S
O10         Zr39   2.346   1_545  S
O11         Zr37   2.342       .  S
O11         Zr38   2.340   1_554  S
C12         C865   1.507       .  S
C13         C788   1.483       .  S
C14         C648   1.506       .  S
C15         C585   1.476       .  S
H16          O17   0.966       .  S
O17         Zr36   2.345   1_545  S
O17         Zr38   2.345       .  S
H18          O19   0.966       .  S
O19         Zr37   2.340   1_655  S
O19         Zr39   2.341   1_544  S
O20         Zr36   2.428   1_655  S
O20          C43   1.289       .  A
O21         Zr37   2.463   1_565  S
O21          C44   1.297       .  A
O22         Zr38   2.444   1_565  S
O22          C45   1.294       .  A
O23         Zr39   2.436       .  S
O23          C46   1.292       .  A
O24         Zr39   2.429   1_554  S
O24          C47   1.290       .  A
O25         Zr38   2.458   1_554  S
O25          C48   1.296       .  A
O26         Zr40   2.454       .  S
O26          C49   1.295   1_556  A
O27         Zr40   2.439   1_654  S
O27          C50   1.292       .  A
O28         Zr38   2.446   1_564  S
O28          C49   1.293       .  A
O29         Zr39   2.456   1_554  S
O29          C50   1.296       .  A
O30         Zr36   2.439       .  S
O30          C45   1.292       .  A
O31         Zr37   2.431       .  S
O31          C48   1.290       .  A
O32         Zr37   2.434   1_665  S
O32          C47   1.291       .  A
O33         Zr36   2.444   1_645  S
O33          C46   1.293   1_545  A
O34         Zr40   2.469   1_655  S
O34          C43   1.298       .  A
O35         Zr40   2.439   1_554  S
O35          C44   1.292       .  A
Zr36         O42   2.348       .  S
Zr36         O54   2.343   1_455  S
Zr37         O41   2.341   1_445  S
Zr37         O52   2.343   1_545  S
Zr38         O42   2.351   1_545  S
Zr38         O52   2.336   1_546  S
Zr39         O41   2.337   1_556  S
Zr39         O54   2.339       .  S
Zr40         O41   2.345   1_456  S
Zr40         O42   2.338       .  S
Zr40         O54   2.342   1_455  S
Zr40         O52   2.349   1_556  S
C43         C816   1.486       .  S
C44         C844   1.496       .  S
C45         C697   1.483       .  S
C46         C676   1.498       .  S
C47         C760   1.498       .  S
C48         C732   1.492       .  S
C49         C620   1.513       .  S
C50         C557   1.503       .  S
H51          O52   0.966       .  S
H53          O54   0.966       .  S
O55         Zr91   2.444       .  S
O55          C66   1.294       .  A
O56         Zr90   2.426   1_655  S
O56          C67   1.290       .  A
O57         Zr63   2.451       .  S
O57          C68   1.294       .  A
O58         Zr63   2.422   1_655  S
O58          C69   1.288       .  A
O59         Zr93   2.451       .  S
O59          C69   1.294       .  A
O60         Zr92   2.428       .  S
O60          C68   1.289       .  A
O61         Zr63   2.458   1_655  S
O61          C67   1.296       .  A
O62         Zr63   2.453   1_655  S
O62          C66   1.296       .  A
Zr63         O64   2.337   1_455  S
Zr63         O65   2.342       .  S
Zr63         O73   2.350   1_455  S
Zr63         O71   2.340       .  S
O64         Zr90   2.337   1_655  S
O64         Zr93   2.333       .  S
O65         Zr91   2.348   1_455  S
O65         Zr92   2.342       .  S
C66         C872   1.497       .  S
C67         C781   1.501       .  S
C68         C389   1.477       .  S
C69         C333   1.476       .  S
H70          O71   0.966       .  S
O71         Zr90   2.343       .  S
O71         Zr92   2.342       .  S
H72          O73   0.966       .  S
O73         Zr91   2.346       .  S
O73         Zr93   2.337       .  S
O74         Zr90   2.437   1_655  S
O74          C97   1.292       .  A
O75         Zr91   2.452   1_455  S
O75          C98   1.295       .  A
O76         Zr92   2.439       .  S
O76          C99   1.292       .  A
O77         Zr93   2.433       .  S
O77         C100   1.291       .  A
O78         Zr93   2.433       .  S
O78         C101   1.291       .  A
O79         Zr92   2.436       .  S
O79         C102   1.291       .  A
O80         Zr94   2.440   1_455  S
O80         C103   1.292       .  A
O81         Zr94   2.459       .  S
O81         C104   1.296       .  A
O82         Zr92   2.446       .  S
O82         C103   1.293       .  A
O83         Zr93   2.428       .  S
O83         C104   1.289       .  A
O84         Zr90   2.439       .  S
O84          C99   1.292       .  A
O85         Zr91   2.453   1_455  S
O85         C102   1.295       .  A
O86         Zr91   2.453       .  S
O86         C101   1.295       .  A
O87         Zr90   2.435   1_655  S
O87         C100   1.292       .  A
O88         Zr94   2.447       .  S
O88          C97   1.294       .  A
O89         Zr94   2.435   1_455  S
O89          C98   1.291       .  A
Zr90         O96   2.336       .  S
Zr90        O108   2.336   1_455  S
Zr91         O95   2.343       .  S
Zr91        O106   2.342   1_655  S
Zr92         O96   2.342       .  S
Zr92        O106   2.338       .  S
Zr93         O95   2.345       .  S
Zr93        O108   2.342       .  S
Zr94         O95   2.343       .  S
Zr94         O96   2.342   1_655  S
Zr94        O108   2.339       .  S
Zr94        O106   2.347   1_655  S
C97         C809   1.495       .  S
C98         C837   1.502       .  S
C99         C508   1.503       .  S
C100        C536   1.491       .  S
C101        C445   1.504       .  S
C102        C473   1.504       .  S
C103        C417   1.480       .  S
C104        C361   1.481       .  S
H105        O106   0.966       .  S
H107        O108   0.966       .  S
O109       Zr145   2.415       .  S
O109        C120   1.286       .  A
O110       Zr144   2.446       .  S
O110        C121   1.294       .  A
O111       Zr117   2.434   1_565  S
O111        C122   1.291       .  A
O112       Zr117   2.431       .  S
O112        C123   1.291       .  A
O113       Zr147   2.442       .  S
O113        C123   1.292       .  A
O114       Zr146   2.439       .  S
O114        C122   1.293       .  A
O115       Zr117   2.436       .  S
O115        C121   1.291       .  A
O116       Zr117   2.465       .  S
O116        C120   1.297   1_545  A
Zr117       O118   2.342       .  S
Zr117       O119   2.336   1_545  S
Zr117       O127   2.336       .  S
Zr117       O125   2.350   1_545  S
O118       Zr144   2.340       .  S
O118       Zr147   2.332       .  S
O119       Zr145   2.343       .  S
O119       Zr146   2.340       .  S
C120        C753   1.477       .  S
C121        C725   1.480       .  S
C122        C256   1.488       .  S
C123        C221   1.491       .  S
H124        O125   0.966       .  S
O125       Zr144   2.351   1_565  S
O125       Zr146   2.345       .  S
H126        O127   0.966       .  S
O127       Zr145   2.344   1_545  S
O127       Zr147   2.338       .  S
O128       Zr144   2.450       .  S
O128        C151   1.294   1_545  A
O129       Zr145   2.439       .  S
O129        C152   1.292       .  A
O130       Zr146   2.460       .  S
O130        C153   1.297       .  A
O131       Zr147   2.435       .  S
O131        C154   1.291       .  A
O132       Zr147   2.428       .  S
O132        C155   1.289       .  A
O133       Zr146   2.455       .  S
O133        C156   1.296       .  A
O134       Zr148   2.442       .  S
O134        C157   1.292       .  A
O135       Zr148   2.445   1_545  S
O135        C158   1.293       .  A
O136       Zr146   2.439       .  S
O136        C157   1.292       .  A
O137       Zr147   2.433       .  S
O137        C158   1.291       .  A
O138       Zr144   2.439   1_565  S
O138        C153   1.292       .  A
O139       Zr145   2.435       .  S
O139        C156   1.291       .  A
O140       Zr145   2.442   1_545  S
O140        C155   1.292       .  A
O141       Zr144   2.445       .  S
O141        C154   1.294       .  A
O142       Zr148   2.424       .  S
O142        C151   1.289       .  A
O143       Zr148   2.436       .  S
O143        C152   1.292       .  A
Zr144       O150   2.337   1_545  S
Zr144       O162   2.335       .  S
Zr145       O149   2.331   1_565  S
Zr145       O160   2.339       .  S
Zr146       O150   2.339       .  S
Zr146       O160   2.350       .  S
Zr147       O149   2.343       .  S
Zr147       O162   2.343       .  S
Zr148       O149   2.337   1_565  S
Zr148       O150   2.336       .  S
Zr148       O162   2.341   1_565  S
Zr148       O160   2.340       .  S
C151        C704   1.506       .  S
C152        C669   1.489       .  S
C153        C424   1.513       .  S
C154        C396   1.498       .  S
C155        C340   1.508       .  S
C156        C368   1.503       .  S
C157        C277   1.483       .  S
C158        C305   1.477       .  S
H159        O160   0.966       .  S
H161        O162   0.966       .  S
O163       Zr199   2.441       .  S
O163        C174   1.293   1_556  A
O164       Zr198   2.451   1_554  S
O164        C175   1.295       .  A
O165       Zr171   2.435   1_554  S
O165        C176   1.291       .  A
O166       Zr171   2.432       .  S
O166        C177   1.290       .  A
O167       Zr201   2.442       .  S
O167        C177   1.292       .  A
O168       Zr200   2.443       .  S
O168        C176   1.293       .  A
O169       Zr171   2.432   1_554  S
O169        C175   1.291       .  A
O170       Zr171   2.431   1_554  S
O170        C174   1.291       .  A
Zr171       O172   2.341       .  S
Zr171       O173   2.337   1_556  S
Zr171       O181   2.345       .  S
Zr171       O179   2.337   1_556  S
O172       Zr198   2.340       .  S
O172       Zr201   2.342       .  S
O173       Zr199   2.348   1_554  S
O173       Zr200   2.342       .  S
C174        C641   1.486       .  S
C175        C613   1.487       .  S
C176        C480   1.492       .  S
C177        C501   1.474       .  S
H178        O179   0.966       .  S
O179       Zr198   2.343   1_554  S
O179       Zr200   2.334       .  S
H180        O181   0.966       .  S
O181       Zr199   2.342       .  S
O181       Zr201   2.340       .  S
O182       Zr198   2.443   1_554  S
O182        C205   1.293       .  A
O183       Zr199   2.443       .  S
O183        C206   1.293   1_556  A
O184       Zr200   2.444       .  S
O184        C207   1.293       .  A
O185       Zr201   2.428       .  S
O185        C208   1.290       .  A
O186       Zr201   2.438       .  S
O186        C209   1.292       .  A
O187       Zr200   2.437       .  S
O187        C210   1.292       .  A
O188       Zr202   2.432   1_554  S
O188        C211   1.290       .  A
O189       Zr202   2.435       .  S
O189        C212   1.291       .  A
O190       Zr200   2.442       .  S
O190        C211   1.292       .  A
O191       Zr201   2.430       .  S
O191        C212   1.290       .  A
O192       Zr198   2.442   1_554  S
O192        C207   1.292       .  A
O193       Zr199   2.444   1_554  S
O193        C210   1.294       .  A
O194       Zr199   2.462       .  S
O194        C209   1.297       .  A
O195       Zr198   2.472       .  S
O195        C208   1.300       .  A
O196       Zr202   2.439   1_554  S
O196        C205   1.292       .  A
O197       Zr202   2.433   1_554  S
O197        C206   1.290       .  A
Zr198       O204   2.336   1_556  S
Zr198       O216   2.345       .  S
Zr199       O203   2.336       .  S
Zr199       O214   2.345   1_556  S
Zr200       O204   2.332       .  S
Zr200       O214   2.342       .  S
Zr201       O203   2.339       .  S
Zr201       O216   2.351       .  S
Zr202       O203   2.339       .  S
Zr202       O204   2.329   1_556  S
Zr202       O216   2.348       .  S
Zr202       O214   2.339   1_556  S
C205        C564   1.509       .  S
C206        C592   1.512       .  S
C207        C249   1.515       .  S
C208        C284   1.501       .  S
C209        C312   1.508       .  S
C210        C228   1.489       .  S
C211        C452   1.479       .  S
C212        C529   1.476       .  S
H213        O214   0.966       .  S
H215        O216   0.966       .  S
C217        C218   1.409       .  A
C217        C222   1.411       .  A
C217        C235   1.452       .  S
C218        C223   1.492       .  S
C218        C219   1.407       .  A
C219        C220   1.408       .  A
C219        C224   1.452       .  S
C220        C221   1.419       .  A
C220        C236   1.450       .  S
C221        C222   1.419       .  A
C222        C225   1.451       .  S
C223        C226   1.408       .  A
C223        C230   1.409       .  A
C224        N241   1.157       .  T
C225        N243   1.157       .  T
C226        C227   1.410       .  A
C226        C231   1.451       .  S
C227        C228   1.418       .  A
C227        C233   1.450       .  S
C228        C229   1.417       .  A
C229        C230   1.409       .  A
C229        C232   1.450       .  S
C230        C234   1.451       .  S
C231        N238   1.157       .  T
C232        N239   1.157       .  T
C233        N237   1.157       .  T
C234        N240   1.157       .  T
C235        N244   1.157       .  T
C236        N242   1.157       .  T
C245        C246   1.408       .  A
C245        C250   1.413       .  A
C245        C263   1.454       .  S
C246        C251   1.499       .  S
C246        C247   1.408       .  A
C247        C248   1.410       .  A
C247        C252   1.454       .  S
C248        C249   1.430       .  A
C248        C264   1.453       .  S
C249        C250   1.430       .  A
C250        C253   1.452       .  S
C251        C254   1.411       .  A
C251        C258   1.413       .  A
C252        N269   1.157       .  T
C253        N271   1.158       .  T
C254        C255   1.407       .  A
C254        C259   1.453       .  S
C255        C256   1.417       .  A
C255        C261   1.449       .  S
C256        C257   1.417       .  A
C257        C258   1.411       .  A
C257        C260   1.452       .  S
C258        C262   1.452       .  S
C259        N266   1.157       .  T
C260        N267   1.157       .  T
C261        N265   1.157       .  T
C262        N268   1.157       .  T
C263        N272   1.157       .  T
C264        N270   1.158       .  T
C273        C274   1.413       .  A
C273        C278   1.411       .  A
C273        C291   1.451       .  S
C274        C279   1.498       .  S
C274        C275   1.411       .  A
C275        C276   1.411       .  A
C275        C280   1.450       .  S
C276        C277   1.413       .  A
C276        C292   1.450       .  S
C277        C278   1.412       .  A
C278        C281   1.452       .  S
C279        C282   1.409       .  A
C279        C286   1.410       .  A
C280        N297   1.157       .  T
C281        N299   1.157       .  T
C282        C283   1.409       .  A
C282        C287   1.451       .  S
C283        C284   1.414       .  A
C283        C289   1.445       .  S
C284        C285   1.422       .  A
C285        C286   1.415       .  A
C285        C288   1.450       .  S
C286        C290   1.452       .  S
C287        N294   1.157       .  T
C288        N295   1.157       .  T
C289        N293   1.155       .  T
C290        N296   1.157       .  T
C291        N300   1.157       .  T
C292        N298   1.157       .  T
C301        C302   1.413       .  A
C301        C306   1.410       .  A
C301        C319   1.450       .  S
C302        C307   1.501       .  S
C302        C303   1.413       .  A
C303        C304   1.411       .  A
C303        C308   1.450       .  S
C304        C305   1.411       .  A
C304        C320   1.451       .  S
C305        C306   1.411       .  A
C306        C309   1.451       .  S
C307        C310   1.409       .  A
C307        C314   1.409       .  A
C308        N325   1.157       .  T
C309        N327   1.157       .  T
C310        C311   1.414       .  A
C310        C315   1.452       .  S
C311        C312   1.422       .  A
C311        C317   1.448       .  S
C312        C313   1.425       .  A
C313        C314   1.414       .  A
C313        C316   1.451       .  S
C314        C318   1.453       .  S
C315        N322   1.157       .  T
C316        N323   1.157       .  T
C317        N321   1.156       .  T
C318        N324   1.157       .  T
C319        N328   1.157       .  T
C320        N326   1.157       .  T
C329        C330   1.412       .  A
C329        C334   1.411       .  A
C329        C347   1.451       .  S
C330        C335   1.493       .  S
C330        C331   1.411       .  A
C331        C332   1.407       .  A
C331        C336   1.450       .  S
C332        C333   1.409       .  A
C332        C348   1.450       .  S
C333        C334   1.412       .  A
C334        C337   1.451       .  S
C335        C338   1.406       .  A
C335        C342   1.406       .  A
C336        N353   1.157       .  T
C337        N355   1.157       .  T
C338        C339   1.411       .  A
C338        C343   1.453       .  S
C339        C340   1.429       .  A
C339        C345   1.453       .  S
C340        C341   1.427       .  A
C341        C342   1.411       .  A
C341        C344   1.452       .  S
C342        C346   1.452       .  S
C343        N350   1.157       .  T
C344        N351   1.158       .  T
C345        N349   1.158       .  T
C346        N352   1.157       .  T
C347        N356   1.157       .  T
C348        N354   1.157       .  T
C357        C358   1.412       .  A
C357        C362   1.410       .  A
C357        C375   1.450       .  S
C358        C363   1.499       .  S
C358        C359   1.413       .  A
C359        C360   1.412       .  A
C359        C364   1.451       .  S
C360        C361   1.414       .  A
C360        C376   1.451       .  S
C361        C362   1.410       .  A
C362        C365   1.451       .  S
C363        C366   1.409       .  A
C363        C370   1.409       .  A
C364        N381   1.157       .  T
C365        N383   1.157       .  T
C366        C367   1.412       .  A
C366        C371   1.451       .  S
C367        C368   1.420       .  A
C367        C373   1.451       .  S
C368        C369   1.424       .  A
C369        C370   1.412       .  A
C369        C372   1.452       .  S
C370        C374   1.452       .  S
C371        N378   1.157       .  T
C372        N379   1.158       .  T
C373        N377   1.157       .  T
C374        N380   1.157       .  T
C375        N384   1.157       .  T
C376        N382   1.157       .  T
C385        C386   1.413       .  A
C385        C390   1.410       .  A
C385        C403   1.450       .  S
C386        C391   1.498       .  S
C386        C387   1.414       .  A
C387        C388   1.410       .  A
C387        C392   1.451       .  S
C388        C389   1.411       .  A
C388        C404   1.451       .  S
C389        C390   1.411       .  A
C390        C393   1.451       .  S
C391        C394   1.409       .  A
C391        C398   1.410       .  A
C392        N409   1.157       .  T
C393        N411   1.157       .  T
C394        C395   1.409       .  A
C394        C399   1.452       .  S
C395        C396   1.419       .  A
C395        C401   1.451       .  S
C396        C397   1.422       .  A
C397        C398   1.413       .  A
C397        C400   1.452       .  S
C398        C402   1.452       .  S
C399        N406   1.157       .  T
C400        N407   1.157       .  T
C401        N405   1.157       .  T
C402        N408   1.157       .  T
C403        N412   1.157       .  T
C404        N410   1.157       .  T
C413        C414   1.414       .  A
C413        C418   1.412       .  A
C413        C431   1.450       .  S
C414        C419   1.505       .  S
C414        C415   1.415       .  A
C415        C416   1.413       .  A
C415        C420   1.450       .  S
C416        C417   1.411       .  A
C416        C432   1.452       .  S
C417        C418   1.410       .  A
C418        C421   1.451       .  S
C419        C422   1.410       .  A
C419        C426   1.409       .  A
C420        N437   1.157       .  T
C421        N439   1.157       .  T
C422        C423   1.413       .  A
C422        C427   1.451       .  S
C423        C424   1.423       .  A
C423        C429   1.452       .  S
C424        C425   1.428       .  A
C425        C426   1.415       .  A
C425        C428   1.452       .  S
C426        C430   1.452       .  S
C427        N434   1.157       .  T
C428        N435   1.158       .  T
C429        N433   1.157       .  T
C430        N436   1.157       .  T
C431        N440   1.157       .  T
C432        N438   1.158       .  T
C441        C442   1.410       .  A
C441        C446   1.412       .  A
C441        C459   1.452       .  S
C442        C447   1.500       .  S
C442        C443   1.409       .  A
C443        C444   1.412       .  A
C443        C448   1.453       .  S
C444        C445   1.424       .  A
C444        C460   1.451       .  S
C445        C446   1.421       .  A
C446        C449   1.452       .  S
C447        C450   1.414       .  A
C447        C454   1.413       .  A
C448        N465   1.157       .  T
C449        N467   1.157       .  T
C450        C451   1.411       .  A
C450        C455   1.451       .  S
C451        C452   1.411       .  A
C451        C457   1.451       .  S
C452        C453   1.411       .  A
C453        C454   1.410       .  A
C453        C456   1.450       .  S
C454        C458   1.451       .  S
C455        N462   1.157       .  T
C456        N463   1.157       .  T
C457        N461   1.157       .  T
C458        N464   1.157       .  T
C459        N468   1.157       .  T
C460        N466   1.158       .  T
C469        C470   1.408       .  A
C469        C474   1.412       .  A
C469        C487   1.452       .  S
C470        C475   1.499       .  S
C470        C471   1.409       .  A
C471        C472   1.414       .  A
C471        C476   1.451       .  S
C472        C473   1.422       .  A
C472        C488   1.451       .  S
C473        C474   1.424       .  A
C474        C477   1.451       .  S
C475        C478   1.410       .  A
C475        C482   1.412       .  A
C476        N493   1.157       .  T
C477        N495   1.157       .  T
C478        C479   1.409       .  A
C478        C483   1.451       .  S
C479        C480   1.416       .  A
C479        C485   1.451       .  S
C480        C481   1.418       .  A
C481        C482   1.413       .  A
C481        C484   1.450       .  S
C482        C486   1.452       .  S
C483        N490   1.157       .  T
C484        N491   1.157       .  T
C485        N489   1.157       .  T
C486        N492   1.158       .  T
C487        N496   1.157       .  T
C488        N494   1.157       .  T
C497        C498   1.414       .  A
C497        C502   1.409       .  A
C497        C515   1.451       .  S
C498        C503   1.498       .  S
C498        C499   1.415       .  A
C499        C500   1.409       .  A
C499        C504   1.451       .  S
C500        C501   1.409       .  A
C500        C516   1.450       .  S
C501        C502   1.410       .  A
C502        C505   1.451       .  S
C503        C506   1.410       .  A
C503        C510   1.409       .  A
C504        N521   1.157       .  T
C505        N523   1.158       .  T
C506        C507   1.412       .  A
C506        C511   1.453       .  S
C507        C508   1.424       .  A
C507        C513   1.452       .  S
C508        C509   1.423       .  A
C509        C510   1.409       .  A
C509        C512   1.452       .  S
C510        C514   1.452       .  S
C511        N518   1.157       .  T
C512        N519   1.157       .  T
C513        N517   1.158       .  T
C514        N520   1.157       .  T
C515        N524   1.157       .  T
C516        N522   1.157       .  T
C525        C526   1.410       .  A
C525        C530   1.408       .  A
C525        C543   1.451       .  S
C526        C531   1.489       .  S
C526        C527   1.410       .  A
C527        C528   1.407       .  A
C527        C532   1.451       .  S
C528        C529   1.412       .  A
C528        C544   1.450       .  S
C529        C530   1.412       .  A
C530        C533   1.450       .  S
C531        C534   1.408       .  A
C531        C538   1.407       .  A
C532        N549   1.157       .  T
C533        N551   1.157       .  T
C534        C535   1.409       .  A
C534        C539   1.452       .  S
C535        C536   1.420       .  A
C535        C541   1.451       .  S
C536        C537   1.420       .  A
C537        C538   1.408       .  A
C537        C540   1.451       .  S
C538        C542   1.452       .  S
C539        N546   1.157       .  T
C540        N547   1.157       .  T
C541        N545   1.157       .  T
C542        N548   1.157       .  T
C543        N552   1.157       .  T
C544        N550   1.157       .  T
C553        C554   1.411       .  A
C553        C558   1.412       .  A
C553        C571   1.453       .  S
C554        C559   1.503       .  S
C554        C555   1.411   1_554  A
C555        C556   1.413       .  A
C555        C560   1.451       .  S
C556        C557   1.422   1_556  A
C556        C572   1.450       .  S
C557        C558   1.419       .  A
C558        C561   1.448       .  S
C559        C562   1.410   1_554  A
C559        C566   1.410       .  A
C560        N577   1.157       .  T
C561        N579   1.156       .  T
C562        C563   1.409   1_556  A
C562        C567   1.452       .  S
C563        C564   1.422       .  A
C563        C569   1.450   1_554  S
C564        C565   1.426       .  A
C565        C566   1.414       .  A
C565        C568   1.451       .  S
C566        C570   1.452       .  S
C567        N574   1.157       .  T
C568        N575   1.157       .  T
C569        N573   1.158       .  T
C570        N576   1.157       .  T
C571        N580   1.157       .  T
C572        N578   1.157       .  T
C581        C582   1.409   1_556  A
C581        C586   1.406       .  A
C581        C599   1.453       .  S
C582        C587   1.492       .  S
C582        C583   1.412       .  A
C583        C584   1.409       .  A
C583        C588   1.451       .  S
C584        C585   1.411   1_554  A
C584        C600   1.450       .  S
C585        C586   1.410       .  A
C586        C589   1.442       .  S
C587        C590   1.405       .  A
C587        C594   1.406   1_554  A
C588        N605   1.157       .  T
C589        N607   1.153       .  T
C590        C591   1.409       .  A
C590        C595   1.453       .  S
C591        C592   1.428       .  A
C591        C597   1.453       .  S
C592        C593   1.430   1_554  A
C593        C594   1.411       .  A
C593        C596   1.452       .  S
C594        C598   1.454       .  S
C595        N602   1.157       .  T
C596        N603   1.158       .  T
C597        N601   1.158       .  T
C598        N604   1.157       .  T
C599        N608   1.157       .  T
C600        N606   1.157       .  T
C609        C610   1.412       .  A
C609        C614   1.411       .  A
C609        C627   1.450       .  S
C610        C615   1.499       .  S
C610        C611   1.413   1_554  A
C611        C612   1.409       .  A
C611        C616   1.451       .  S
C612        C613   1.411   1_556  A
C612        C628   1.448       .  S
C613        C614   1.411       .  A
C614        C617   1.448       .  S
C615        C618   1.407   1_554  A
C615        C622   1.407       .  A
C616        N633   1.157       .  T
C617        N635   1.156       .  T
C618        C619   1.415       .  A
C618        C623   1.452       .  S
C619        C620   1.428   1_556  A
C619        C625   1.451       .  S
C620        C621   1.426       .  A
C621        C622   1.411       .  A
C621        C624   1.451       .  S
C622        C626   1.453       .  S
C623        N630   1.157       .  T
C624        N631   1.157       .  T
C625        N629   1.158       .  T
C626        N632   1.157       .  T
C627        N636   1.157       .  T
C628        N634   1.157       .  T
C637        C638   1.410   1_554  A
C637        C642   1.409       .  A
C637        C655   1.452       .  S
C638        C643   1.494       .  S
C638        C639   1.411       .  A
C639        C640   1.409       .  A
C639        C644   1.451       .  S
C640        C641   1.416   1_556  A
C640        C656   1.451       .  S
C641        C642   1.417       .  A
C642        C645   1.451       .  S
C643        C646   1.408       .  A
C643        C650   1.406   1_556  A
C644        N661   1.157       .  T
C645        N663   1.157       .  T
C646        C647   1.413       .  A
C646        C651   1.453       .  S
C647        C648   1.428       .  A
C647        C653   1.453       .  S
C648        C649   1.424   1_556  A
C649        C650   1.408       .  A
C649        C652   1.452       .  S
C650        C654   1.453       .  S
C651        N658   1.158       .  T
C652        N659   1.157       .  T
C653        N657   1.158       .  T
C654        N660   1.157       .  T
C655        N664   1.157       .  T
C656        N662   1.157       .  T
C665        C666   1.409   1_545  A
C665        C670   1.410       .  A
C665        C683   1.452       .  S
C666        C671   1.495       .  S
C666        C667   1.409       .  A
C667        C668   1.410       .  A
C667        C672   1.451       .  S
C668        C669   1.416       .  A
C668        C684   1.450       .  S
C669        C670   1.417   1_565  A
C670        C673   1.449       .  S
C671        C674   1.408   1_565  A
C671        C678   1.408       .  A
C672        N689   1.157       .  T
C673        N691   1.156       .  T
C674        C675   1.411       .  A
C674        C679   1.452       .  S
C675        C676   1.422   1_545  A
C675        C681   1.451       .  S
C676        C677   1.422       .  A
C677        C678   1.410       .  A
C677        C680   1.451       .  S
C678        C682   1.452       .  S
C679        N686   1.157       .  T
C680        N687   1.157       .  T
C681        N685   1.157       .  T
C682        N688   1.157       .  T
C683        N692   1.157       .  T
C684        N690   1.157       .  T
C693        C694   1.411       .  A
C693        C698   1.410       .  A
C693        C711   1.450       .  S
C694        C699   1.495       .  S
C694        C695   1.411   1_565  A
C695        C696   1.409       .  A
C695        C700   1.451       .  S
C696        C697   1.412   1_545  A
C696        C712   1.448       .  S
C697        C698   1.412       .  A
C698        C701   1.449       .  S
C699        C702   1.408       .  A
C699        C706   1.406   1_565  A
C700        N717   1.157       .  T
C701        N719   1.157       .  T
C702        C703   1.410       .  A
C702        C707   1.453       .  S
C703        C704   1.422       .  A
C703        C709   1.448       .  S
C704        C705   1.427   1_565  A
C705        C706   1.412       .  A
C705        C708   1.452       .  S
C706        C710   1.451       .  S
C707        N714   1.157       .  T
C708        N715   1.158       .  T
C709        N713   1.156       .  T
C710        N716   1.157       .  T
C711        N720   1.157       .  T
C712        N718   1.156       .  T
C721        C722   1.415   1_565  A
C721        C726   1.408       .  A
C721        C739   1.451       .  S
C722        C727   1.501       .  S
C722        C723   1.415       .  A
C723        C724   1.412       .  A
C723        C728   1.452       .  S
C724        C725   1.411       .  A
C724        C740   1.449       .  S
C725        C726   1.408   1_545  A
C726        C729   1.451       .  S
C727        C730   1.414       .  A
C727        C734   1.411   1_545  A
C728        N745   1.157       .  T
C729        N747   1.157       .  T
C730        C731   1.414       .  A
C730        C735   1.452       .  S
C731        C732   1.417       .  A
C731        C737   1.451       .  S
C732        C733   1.414   1_545  A
C733        C734   1.408       .  A
C733        C736   1.447       .  S
C734        C738   1.452       .  S
C735        N742   1.157       .  T
C736        N743   1.155       .  T
C737        N741   1.157       .  T
C738        N744   1.157       .  T
C739        N748   1.157       .  T
C740        N746   1.156       .  T
C749        C750   1.414       .  A
C749        C754   1.408       .  A
C749        C767   1.451       .  S
C750        C755   1.497       .  S
C750        C751   1.414   1_565  A
C751        C752   1.410       .  A
C751        C756   1.451       .  S
C752        C753   1.411   1_545  A
C752        C768   1.451       .  S
C753        C754   1.409       .  A
C754        C757   1.451       .  S
C755        C758   1.409   1_565  A
C755        C762   1.410       .  A
C756        N773   1.157       .  T
C757        N775   1.157       .  T
C758        C759   1.409       .  A
C758        C763   1.452       .  S
C759        C760   1.423   1_545  A
C759        C765   1.452       .  S
C760        C761   1.421       .  A
C761        C762   1.410       .  A
C761        C764   1.453       .  S
C762        C766   1.452       .  S
C763        N770   1.157       .  T
C764        N771   1.158       .  T
C765        N769   1.157       .  T
C766        N772   1.157       .  T
C767        N776   1.157       .  T
C768        N774   1.157       .  T
C777        C778   1.406       .  A
C777        C782   1.413       .  A
C777        C795   1.452       .  S
C778        C783   1.493       .  S
C778        C779   1.407   1_655  A
C779        C780   1.408       .  A
C779        C784   1.452       .  S
C780        C781   1.421   1_455  A
C780        C796   1.450       .  S
C781        C782   1.427       .  A
C782        C785   1.451       .  S
C783        C786   1.411       .  A
C783        C790   1.410   1_655  A
C784        N801   1.157       .  T
C785        N803   1.157       .  T
C786        C787   1.410       .  A
C786        C791   1.451       .  S
C787        C788   1.413       .  A
C787        C793   1.450       .  S
C788        C789   1.411   1_655  A
C789        C790   1.409       .  A
C789        C792   1.449       .  S
C790        C794   1.451       .  S
C791        N798   1.157       .  T
C792        N799   1.157       .  T
C793        N797   1.157       .  T
C794        N800   1.157       .  T
C795        N804   1.158       .  T
C796        N802   1.157       .  T
C805        C806   1.412       .  A
C805        C810   1.412       .  A
C805        C823   1.451       .  S
C806        C811   1.504       .  S
C806        C807   1.413   1_655  A
C807        C808   1.412       .  A
C807        C812   1.451       .  S
C808        C809   1.418   1_455  A
C808        C824   1.452       .  S
C809        C810   1.417       .  A
C810        C813   1.449       .  S
C811        C814   1.416       .  A
C811        C818   1.414   1_655  A
C812        N829   1.157       .  T
C813        N831   1.156       .  T
C814        C815   1.414       .  A
C814        C819   1.450       .  S
C815        C816   1.412       .  A
C815        C821   1.451       .  S
C816        C817   1.410   1_655  A
C817        C818   1.410       .  A
C817        C820   1.448       .  S
C818        C822   1.452       .  S
C819        N826   1.157       .  T
C820        N827   1.156       .  T
C821        N825   1.158       .  T
C822        N828   1.157       .  T
C823        N832   1.157       .  T
C824        N830   1.157       .  T
C833        C834   1.408   1_655  A
C833        C838   1.412       .  A
C833        C851   1.452       .  S
C834        C839   1.498       .  S
C834        C835   1.408       .  A
C835        C836   1.413       .  A
C835        C840   1.452       .  S
C836        C837   1.422       .  A
C836        C852   1.451       .  S
C837        C838   1.424   1_455  A
C838        C841   1.452       .  S
C839        C842   1.410       .  A
C839        C846   1.408   1_455  A
C840        N857   1.157       .  T
C841        N859   1.158       .  T
C842        C843   1.414       .  A
C842        C847   1.451       .  S
C843        C844   1.417       .  A
C843        C849   1.449       .  S
C844        C845   1.418   1_455  A
C845        C846   1.411       .  A
C845        C848   1.447       .  S
C846        C850   1.452       .  S
C847        N854   1.157       .  T
C848        N855   1.156       .  T
C849        N853   1.156       .  T
C850        N856   1.157       .  T
C851        N860   1.157       .  T
C852        N858   1.157       .  T
C861        C862   1.408   1_455  A
C861        C866   1.413       .  A
C861        C879   1.453       .  S
C862        C867   1.501       .  S
C862        C863   1.408       .  A
C863        C864   1.415       .  A
C863        C868   1.451       .  S
C864        C865   1.422       .  A
C864        C880   1.449       .  S
C865        C866   1.422   1_655  A
C866        C869   1.448       .  S
C867        C870   1.409       .  A
C867        C874   1.411   1_655  A
C868        N885   1.157       .  T
C869        N887   1.156       .  T
C870        C871   1.413       .  A
C870        C875   1.451       .  S
C871        C872   1.420       .  A
C871        C877   1.450       .  S
C872        C873   1.418   1_655  A
C873        C874   1.413       .  A
C873        C876   1.451       .  S
C874        C878   1.451       .  S
C875        N882   1.157       .  T
C876        N883   1.157       .  T
C877        N881   1.157       .  T
C878        N884   1.157       .  T
C879        N888   1.157       .  T
C880        N886   1.157       .  T
