geometry optimzed in LAMMPS
_audit_creation_date              2020-11-30 
_audit_creation_method            'lammps2cif' 
_symmetry_space_group_name_H-M    'P1' 
_symmetry_Int_Tables_number       1 
_symmetry_cell_setting            triclinic 
loop_ 
_symmetry_equiv_pos_as_xyz 
  x,y,z 
_cell_length_a                    23.31588869 
_cell_length_b                    23.402694502045918 
_cell_length_c                    23.3165626994017 
_cell_angle_alpha                 90.87243155894308 
_cell_angle_beta                  88.77333619435959 
_cell_angle_gamma                 91.81178348325336 
loop_ 
_atom_site_label 
_atom_site_type_symbol 
_atom_site_fract_x 
_atom_site_fract_y 
_atom_site_fract_z 
_atom_site_charge 
C1          C  0.87149960  0.38340435  0.41614942    -0.01000
C2          C  0.58459446  0.30246034  0.05495165    -0.01000
C3          C  0.95775082  0.01869872  0.12717091    -0.01000
In4        In  0.73877964  0.26354490  0.45690776     1.36900
C5          C  0.82591007  0.33625895  0.43161427     0.79100
O6          O  0.67430533  0.26829932  0.52855536    -0.59300
O7          O  0.66038426  0.20193703  0.46680668    -0.55000
C8          C  0.67161970  0.31904546  0.39366614     0.71800
O9          O  0.68367652  0.33707644  0.44367491    -0.45100
C10         C  0.81783882  0.19087728  0.47629218     0.76500
O11         O  0.80568699  0.30048479  0.39527390    -0.57000
O12         O  0.80403805  0.22760528  0.51434046    -0.47100
O13         O  0.80033583  0.33432545  0.48075350    -0.53400
C14         C  0.64011263  0.22865714  0.51016103     0.86700
O15         O  0.69809380  0.27538083  0.37484552    -0.55300
O16         O  0.78423280  0.18510715  0.43403133    -0.58600
In17       In  0.86091838  0.00044309  0.28226550     1.36900
C18         C  0.91920301  0.00825095  0.18107196     0.79100
O19         O  0.86107586  0.92388911  0.33922821    -0.59300
O20         O  0.79262100  0.98025707  0.35034090    -0.50200
C21         C  0.92133897  0.06396288  0.35322973     0.71800
O22         O  0.93735005  0.01463337  0.33888885    -0.45100
C23         C  0.77373126  0.01957388  0.22339577     0.76500
O24         O  0.89301985  0.04857217  0.20525990    -0.57000
O25         O  0.79295408  0.96938035  0.22407534    -0.47100
O26         O  0.91603178  0.96195500  0.20949609    -0.53400
C27         C  0.81703199  0.93732839  0.36931647     0.86700
O28         O  0.87948106  0.08217596  0.32606166    -0.55300
O29         O  0.79184786  0.05471098  0.26136112    -0.58600
In30       In  0.54138745  0.17085545  0.17234339     1.36900
C31         C  0.56405146  0.25637882  0.09824141     0.79100
O32         O  0.53514612  0.09298990  0.23262731    -0.59300
O33         O  0.47485460  0.09907271  0.16694436    -0.50200
C34         C  0.62338517  0.11963931  0.12125692     0.71800
O35         O  0.57507501  0.12082654  0.09749697    -0.45100
C36         C  0.53304675  0.24776775  0.25306413     0.76500
O37         O  0.59913886  0.23788323  0.13354427    -0.57000
O38         O  0.49139251  0.23873814  0.21960904    -0.47100
O39         O  0.51442273  0.23148102  0.10144791    -0.53400
C40         C  0.49351744  0.06855960  0.20722867     0.86700
O41         O  0.62780520  0.14445893  0.16988945    -0.55300
O42         O  0.57165771  0.21089210  0.25132634    -0.58600
C43         C  0.58372429  0.21160210  0.54358764    -0.01000
C44         C  0.96039455  0.49190865  0.63514915    -0.01000
C45         C  0.86277128  0.13039386  0.91975530    -0.01000
In46       In  0.84717892  0.52885399  0.77652403     1.36900
C47         C  0.91693009  0.50891687  0.68371539     0.79100
O48         O  0.77215752  0.48807566  0.73852560    -0.59300
O49         O  0.79488970  0.57558827  0.71583009    -0.50200
C50         C  0.89532382  0.46811784  0.85140958     0.71800
O51         O  0.91836157  0.51534718  0.83616108    -0.45100
C52         C  0.80746641  0.58767265  0.87014098     0.76500
O53         O  0.88637263  0.47121967  0.70952770    -0.57000
O54         O  0.77874937  0.54738060  0.84640341    -0.47100
O55         O  0.91178272  0.55879897  0.70572444    -0.53400
C56         C  0.76579628  0.52993320  0.70535324     0.86700
O57         O  0.85263346  0.44945164  0.82278805    -0.55300
O58         O  0.85396108  0.59986505  0.84207809    -0.58600
In59       In  0.54550696  0.36205674  0.64064706     1.36900
C60         C  0.56902508  0.26626859  0.58017665     0.79100
O61         O  0.56950651  0.33122534  0.72200050    -0.59300
O62         O  0.48574306  0.30444382  0.69088143    -0.50200
C63         C  0.61717240  0.43046373  0.59126327     0.71800
O64         O  0.56799380  0.42203328  0.56988913    -0.45100
C65         C  0.49355633  0.45506984  0.68582006     0.76500
O66         O  0.60372058  0.29041122  0.61470624    -0.57000
O67         O  0.53604309  0.43238318  0.70819958    -0.47100
O68         O  0.52277807  0.29381506  0.57493646    -0.53400
C69         C  0.52281176  0.30268655  0.72994519     0.86700
O70         O  0.62962193  0.39990371  0.63355365    -0.55300
O71         O  0.47752536  0.42864463  0.63990781    -0.58600
In72       In  0.72465488  0.23964091  0.95762714     1.36900
C73         C  0.81326055  0.17035932  0.93704593     0.79100
O74         O  0.76579708  0.31849848  0.92844788    -0.59300
O75         O  0.78751553  0.28793163  0.01195460    -0.50200
C76         C  0.64775397  0.21617265  0.88288674     0.71800
O77         O  0.65301704  0.18283317  0.92462183    -0.45100
C78         C  0.63518298  0.27762023  0.01994479     0.76500
O79         O  0.79235331  0.20261561  0.90040058    -0.57000
O80         O  0.66472698  0.30813472  0.98543286    -0.47100
O81         O  0.78690689  0.17230664  0.98543439    -0.53400
C82         C  0.79808734  0.32246171  0.97144687     0.86700
O83         O  0.68929311  0.25115039  0.87327003    -0.55300
O84         O  0.65479789  0.22777475  0.02637243    -0.58600
C85         C  0.45832003  0.50380998  0.71561650    -0.01000
C86         C  0.36316916  0.12309809  0.43878260    -0.01000
C87         C  0.08720349  0.22095381  0.82076479    -0.01000
In88       In  0.34255068  0.53713976  0.58449386     1.36900
C89         C  0.41473346  0.51732258  0.66878249     0.79100
O90         O  0.35530097  0.60476961  0.51922515    -0.59300
O91         O  0.27901823  0.55375135  0.51406359    -0.50200
C92         C  0.38697800  0.46444467  0.51603269     0.71800
O93         O  0.41119368  0.51282540  0.52421468    -0.45100
C94         C  0.26631984  0.55690364  0.66435952     0.76500
O95         O  0.37553826  0.48180543  0.65381765    -0.57000
O96         O  0.30505485  0.59451727  0.65257603    -0.47100
O97         O  0.41867741  0.56140149  0.63711649    -0.53400
C98         C  0.30943454  0.59355468  0.49155759     0.86700
O99         O  0.34243940  0.45207351  0.54649233    -0.55300
O100        O  0.26128720  0.51535087  0.62889212    -0.58600
In101      In  0.06319898  0.36859469  0.71695198     1.36900
C102        C  0.07620326  0.27304074  0.78115467     0.79100
O103        O  0.05297276  0.44758832  0.65981038    -0.59300
O104        O  0.97879119  0.40998419  0.69925281    -0.50200
C105        C  0.12873379  0.44050890  0.77259239     0.71800
O106        O  0.07796807  0.42989161  0.79098243    -0.45100
C107        C  0.07590988  0.30074456  0.63131798     0.76500
O108        O  0.11389066  0.29330976  0.74688909    -0.57000
O109        O  0.02823180  0.30251656  0.65819771    -0.47100
O110        O  0.03147973  0.30354206  0.78421431    -0.53400
C111        C  0.99917473  0.44947930  0.66655561     0.86700
O112        O  0.14532521  0.41118330  0.72970424    -0.55300
O113        O  0.11315958  0.33956121  0.64303950    -0.58600
In114      In  0.22908688  0.23305932  0.39415657     1.36900
C115        C  0.31627803  0.16469122  0.41997699     0.79100
O116        O  0.16442960  0.22556434  0.32195332    -0.59300
O117        O  0.15734570  0.29598746  0.37904408    -0.50200
C118        C  0.16720274  0.18861354  0.47345100     0.71800
O119        O  0.17359517  0.16097235  0.42664255    -0.45100
C120        C  0.30852485  0.31072169  0.38659224     0.76500
O121        O  0.29160221  0.19708932  0.45601418    -0.57000
O122        O  0.30213740  0.27488533  0.34575413    -0.47100
O123        O  0.29627556  0.16838528  0.36953610    -0.53400
C124        C  0.13691567  0.27063386  0.33536765     0.86700
O125        O  0.19294198  0.23704890  0.47789493    -0.55300
O126        O  0.26860076  0.31235867  0.42431135    -0.58600
C127        C  0.28912137  0.63248813  0.44240030    -0.01000
C128        C  0.57238987  0.71793532  0.81688083    -0.01000
C129        C  0.19098537  0.00082226  0.72989522    -0.01000
In130      In  0.43709028  0.73865371  0.42511686     1.36900
C131        C  0.34225069  0.67257663  0.43359853     0.79100
O132        O  0.39687833  0.81392140  0.46225722    -0.59300
O133        O  0.37395428  0.78679088  0.37646019    -0.50200
C134        C  0.50292704  0.68834375  0.49424696     0.71800
O135        O  0.48978216  0.66524200  0.44688326    -0.45100
C136        C  0.52721140  0.77817267  0.36038709     0.76500
O137        O  0.37830731  0.66872899  0.39190778    -0.57000
O138        O  0.49833301  0.73209760  0.35028753    -0.47100
O139        O  0.35843198  0.70708933  0.47254689    -0.53400
C140        C  0.36298193  0.81728007  0.42050710     0.86700
O141        O  0.47582606  0.73249684  0.50923452    -0.55300
O142        O  0.50881231  0.80518302  0.40414481    -0.58600
In143      In  0.60164840  0.86266349  0.71274297     1.36900
C144        C  0.58555053  0.77019331  0.77787178     0.79100
O145        O  0.57850925  0.82053454  0.63300898    -0.59300
O146        O  0.66058653  0.80238999  0.66982293    -0.50200
C147        C  0.52901866  0.92810605  0.76221569     0.71800
O148        O  0.57811767  0.92261383  0.78329379    -0.45100
C149        C  0.65576085  0.95499702  0.66720068     0.76500
O150        O  0.62915490  0.80428994  0.78307041    -0.57000
O151        O  0.67026149  0.93059963  0.71322183    -0.47100
O152        O  0.55028246  0.78618752  0.74131336    -0.53400
C153        C  0.62298642  0.79040653  0.63255620     0.86700
O154        O  0.51559214  0.89472950  0.72080458    -0.55300
O155        O  0.61287228  0.93071136  0.64353587    -0.58600
In156      In  0.30106004  0.03435598  0.58634298     1.36900
C157        C  0.23353228  0.01725953  0.68020915     0.79100
O158        O  0.37711464  0.99862740  0.62215013    -0.59300
O159        O  0.35533189  0.08449314  0.64788186    -0.50200
C160        C  0.25063900  0.96043817  0.52104033     0.71800
O161        O  0.22657904  0.00702067  0.53296181    -0.45100
C162        C  0.33785116  0.08830974  0.48996394     0.76500
O163        O  0.26343663  0.97942465  0.65572909    -0.57000
O164        O  0.29313176  0.10215919  0.51884443    -0.47100
O165        O  0.23881369  0.06594162  0.65628341    -0.53400
C166        C  0.38460384  0.04069991  0.65637299     0.86700
O167        O  0.29667453  0.95088770  0.54691331    -0.55300
O168        O  0.36468871  0.04843444  0.51242185    -0.58600
C169        C  0.78573685  0.62509596  0.92244554    -0.01000
C170        C  0.06816329  0.71756290  0.54808278    -0.01000
C171        C  0.69191834  0.00470606  0.63953603    -0.01000
In172      In  0.80704835  0.03879545  0.77394185     1.36900
C173        C  0.73664606  0.02163605  0.68554406     0.79100
O174        O  0.79542439  0.10595141  0.84154713    -0.59300
O175        O  0.86935583  0.05500259  0.84551819    -0.50200
C176        C  0.76038777  0.95967813  0.83702725     0.71800
O177        O  0.73637524  0.00721054  0.83332737    -0.45100
C178        C  0.88918074  0.04992757  0.69907615     0.76500
O179        O  0.74391415  0.07046789  0.70958324    -0.57000
O180        O  0.85620305  0.09111169  0.70885243    -0.47100
O181        O  0.76716227  0.98380629  0.70659890    -0.53400
C182        C  0.84038464  0.09413072  0.86887927     0.86700
O183        O  0.80503317  0.95291033  0.80580315    -0.55300
O184        O  0.88671157  0.00968888  0.73500148    -0.58600
In185      In  0.09057297  0.86061566  0.66132076     1.36900
C186        C  0.08033388  0.76504354  0.59434771     0.79100
O187        O  0.10583942  0.93331760  0.72789694    -0.59300
O188        O  0.16518722  0.92387865  0.65879734    -0.50200
C189        C  0.02513723  0.92522080  0.60490538     0.71800
O190        O  0.07413021  0.91333612  0.58478601    -0.45100
C191        C  0.08392907  0.79020893  0.74341200     0.76500
O192        O  0.12612925  0.79624228  0.59630471    -0.57000
O193        O  0.13204925  0.80110160  0.71881695    -0.47100
O194        O  0.04116267  0.78280574  0.62770715    -0.53400
C195        C  0.15110489  0.95294904  0.70348157     0.86700
O196        O  0.00899723  0.90007441  0.65053375    -0.55300
O197        O  0.04338745  0.82339668  0.73327213    -0.58600
In198      In  0.93272636  0.72742518  0.95456762     1.36900
C199        C  0.83957120  0.66260772  0.93535671     0.79100
O200        O  0.02129347  0.76918424  0.95941372    -0.59300
O201        O  0.97910378  0.74150964  0.03670087    -0.50200
C202        C  0.99530829  0.67282323  0.88467934     0.71800
O203        O  0.98077444  0.64909723  0.93153565    -0.45100
C204        C  0.86321156  0.81116895  0.94879707     0.76500
O205        O  0.85770636  0.70061426  0.90135966    -0.57000
O206        O  0.86752142  0.78502633  0.99570256    -0.47100
O207        O  0.87322810  0.65437983  0.97696394    -0.53400
C208        C  0.02323560  0.76608227  0.01325333     0.86700
O209        O  0.97577187  0.72186220  0.87546201    -0.55300
O210        O  0.90216356  0.80219169  0.91127365    -0.58600
C211        C  0.38163103  0.39059826  0.93738721    -0.01000
C212        C  0.46186959  0.01216723  0.22755328    -0.01000
C213        C  0.09222154  0.29787769  0.29505981    -0.01000
In214      In  0.06260693  0.16444046  0.17416485     1.36900
C215        C  0.08015830  0.24918962  0.25113258     0.79100
O216        O  0.09328555  0.21311415  0.09950019    -0.59300
O217        O  0.00898030  0.23065489  0.13277118    -0.50200
C218        C  0.13627602  0.09067041  0.19850181     0.71800
O219        O  0.09991496  0.10613330  0.23610299    -0.45100
C220        C  0.99768407  0.07069615  0.14440153     0.76500
O221        O  0.03756552  0.21382208  0.25419933    -0.57000
O222        O  0.03735608  0.09132073  0.11251804    -0.47100
O223        O  0.11648065  0.23618453  0.21252517    -0.53400
C224        C  0.05133071  0.24627373  0.10111205     0.86700
O225        O  0.14227898  0.12163184  0.15448988    -0.55300
O226        O  0.98906931  0.10164764  0.18911927    -0.58600
In227      In  0.35976427  0.96725242  0.08620343     1.36900
C228        C  0.42376647  0.99412223  0.17633423     0.79100
O229        O  0.28742146  0.99326949  0.13523682    -0.59300
O230        O  0.30977050  0.90454505  0.14120870    -0.50200
C231        C  0.40383245  0.04603578  0.02491780     0.71800
O232        O  0.43172689  0.00078807  0.03070056    -0.45100
C233        C  0.31629516  0.91901878  0.98901670     0.76500
O234        O  0.38830319  0.02740603  0.15536282    -0.57000
O235        O  0.29305215  0.96020739  0.01547487    -0.47100
O236        O  0.42818140  0.94683430  0.14848431    -0.53400
C237        C  0.27673475  0.94442821  0.15649255     0.86700
O238        O  0.35593562  0.04923522  0.05159269    -0.55300
O239        O  0.36115807  0.90258881  0.01428119    -0.58600
In240      In  0.23273045  0.28417707  0.91054609     1.36900
C241        C  0.32898161  0.34956924  0.92519470     0.79100
O242        O  0.25798528  0.21246978  0.96069586    -0.59300
O243        O  0.29290056  0.21969482  0.87459135    -0.50200
C244        C  0.16452733  0.34877852  0.96941814     0.71800
O245        O  0.17922165  0.36232032  0.91870393    -0.45100
C246        C  0.14072169  0.24235044  0.85444906     0.76500
O247        O  0.29924329  0.35013285  0.87968145    -0.57000
O248        O  0.14964563  0.23180057  0.90631488    -0.47100
O249        O  0.30825914  0.31572589  0.96241975    -0.53400
C250        C  0.29538936  0.19731726  0.92371788     0.86700
O251        O  0.18860995  0.30578701  0.98962875    -0.55300
O252        O  0.18271758  0.26985102  0.83021766    -0.58600
C253        C  0.57394471  0.80253518  0.31813645    -0.01000
C254        C  0.20544292  0.52174580  0.22009468    -0.01000
C255        C  0.28952423  0.88629973  0.93590418    -0.01000
In256      In  0.60274942  0.66129785  0.20691924     1.36900
C257        C  0.58676549  0.75283901  0.27535986     0.79100
O258        O  0.67368498  0.60074890  0.21091348    -0.59300
O259        O  0.61946869  0.59319029  0.13861286    -0.50200
C260        C  0.53899900  0.58644819  0.26208466     0.71800
O261        O  0.58819662  0.60138466  0.28016436    -0.45100
C262        C  0.60892557  0.73577620  0.12807673     0.76500
O263        O  0.54662425  0.72596147  0.24957203    -0.57000
O264        O  0.65293939  0.72683346  0.15735741    -0.47100
O265        O  0.63588749  0.73205876  0.26525804    -0.53400
C266        C  0.65959728  0.57169616  0.16620137     0.86700
O267        O  0.52107337  0.61419130  0.21982957    -0.55300
O268        O  0.56717816  0.69950671  0.13230121    -0.58600
In269      In  0.42369918  0.77089976  0.90990644     1.36900
C270        C  0.33501765  0.84103991  0.92151316     0.79100
O271        O  0.49339441  0.70583615  0.89037399    -0.59300
O272        O  0.49208659  0.78159799  0.84233628    -0.50200
C273        C  0.49126399  0.82278711  0.98105834     0.71800
O274        O  0.48286729  0.84387461  0.93262602    -0.45100
C275        C  0.35065372  0.68668849  0.91403228     0.76500
O276        O  0.35126721  0.80789639  0.95972298    -0.57000
O277        O  0.36049412  0.71180526  0.86666963    -0.47100
O278        O  0.36408496  0.83736090  0.87462213    -0.53400
C279        C  0.51917727  0.73664526  0.85322222     0.86700
O280        O  0.46107639  0.77870614  0.99417839    -0.55300
O281        O  0.38492420  0.69854838  0.95431333    -0.58600
In282      In  0.32595363  0.47735667  0.09031474     1.36900
C283        C  0.25104824  0.50671708  0.17299854     0.79100
O284        O  0.39048939  0.46660312  0.01523102    -0.59300
O285        O  0.32199605  0.40583436  0.02614152    -0.50200
C286        C  0.26619945  0.53367072  0.02175405     0.71800
O287        O  0.25091767  0.48317394  0.03519160    -0.45100
C288        C  0.39820668  0.46197325  0.17231584     0.76500
O289        O  0.25339606  0.45684439  0.14979971    -0.57000
O290        O  0.36156999  0.42287883  0.15902561    -0.47100
O291        O  0.28772926  0.54243852  0.15225311    -0.53400
C292        C  0.36350329  0.42357237  0.99371748     0.86700
O293        O  0.31127830  0.55520113  0.04520650    -0.55300
O294        O  0.40300454  0.50388027  0.13805218    -0.58600
C295        C  0.69366981  0.51947923  0.14505796    -0.01000
C296        C  0.79345497  0.90131693  0.42039517    -0.01000
C297        C  0.06870736  0.79871785  0.04824301    -0.01000
In298      In  0.79502639  0.48471536  0.28885251     1.36900
C299        C  0.73166989  0.50632147  0.19687292     0.79100
O300        O  0.86938412  0.50791378  0.24240517    -0.59300
O301        O  0.83886977  0.41930181  0.23501336    -0.50200
C302        C  0.77715807  0.56245249  0.36462138     0.71800
O303        O  0.74000244  0.52226624  0.35832398    -0.45100
C304        C  0.84159364  0.42193130  0.37262485     0.76500
O305        O  0.71680387  0.46952305  0.23498271    -0.57000
O306        O  0.86628670  0.46548288  0.35087295    -0.47100
O307        O  0.77738825  0.53392352  0.20821425    -0.53400
C308        C  0.87642109  0.45781890  0.22234146     0.86700
O309        O  0.81504654  0.56803524  0.32538526    -0.55300
O310        O  0.79246705  0.41015202  0.35082717    -0.58600
In311      In  0.93364940  0.79885475  0.46063321     1.36900
C312        C  0.84432586  0.86276356  0.43505647     0.79100
O313        O  0.88731753  0.72291443  0.43877229    -0.59300
O314        O  0.87301219  0.75984500  0.52417815    -0.50200
C315        C  0.00834688  0.84768899  0.39517282     0.71800
O316        O  0.99890547  0.86849958  0.44500622    -0.45100
C317        C  0.01964682  0.74620696  0.51325406     0.76500
O318        O  0.86666253  0.82776186  0.39963264    -0.57000
O319        O  0.99573421  0.72478127  0.46916275    -0.47100
O320        O  0.87082623  0.86694429  0.48232154    -0.53400
C321        C  0.86149524  0.72062120  0.48748708     0.86700
O322        O  0.97697834  0.80495909  0.37952786    -0.55300
O323        O  0.99745100  0.79351067  0.52928138    -0.58600
In324      In  0.11003816  0.66726128  0.16670038     1.36900
C325        C  0.08706937  0.75303161  0.09209423     0.79100
O326        O  0.07956582  0.70635063  0.24613704    -0.59300
O327        O  0.16114690  0.73663683  0.21207740    -0.50200
C328        C  0.02735713  0.59573481  0.15122604     0.71800
O329        O  0.06590855  0.60145802  0.11236201    -0.45100
C330        C  0.16961527  0.57232358  0.19817406     0.76500
O331        O  0.05079338  0.72882657  0.12538523    -0.57000
O332        O  0.13406203  0.59804177  0.23007308    -0.47100
O333        O  0.13660465  0.73144284  0.09497550    -0.53400
C334        C  0.11923435  0.74430921  0.24657375     0.86700
O335        O  0.02536515  0.63438432  0.18962773    -0.55300
O336        O  0.17836573  0.59797091  0.15071440    -0.58600
C337        C  0.06041406  0.82727920  0.26309813     0.25100
C338        C  0.10961823  0.79785782  0.27753313    -0.23000
C339        C  0.13753622  0.81195652  0.32862801     0.20000
C340        C  0.10918417  0.84596815  0.36964806     0.25100
C341        C  0.05501779  0.86709027  0.35720349    -0.22900
C342        C  0.03834010  0.86824120  0.30017927     0.20000
F343        F  0.98756437  0.89143747  0.28732659    -0.12900
F344        F  0.02763971  0.80899806  0.21857019    -0.15200
F345        F  0.12664265  0.84555100  0.42473748    -0.15200
F346        F  0.18588376  0.78519348  0.34269803    -0.12900
C347        C  0.83912813  0.58718319  0.44400476     0.25100
C348        C  0.78559673  0.59271538  0.41865868    -0.23000
C349        C  0.74725938  0.63239139  0.44114900     0.20000
C350        C  0.76782994  0.67338230  0.48078173     0.25100
C351        C  0.82454469  0.67129806  0.49932152    -0.22900
C352        C  0.85453183  0.62169455  0.48985033     0.20000
F353        F  0.90863636  0.61892342  0.50910899    -0.12900
F354        F  0.87931979  0.55266041  0.42064784    -0.15200
F355        F  0.73821429  0.72116194  0.49086060    -0.15200
F356        F  0.69438243  0.63669104  0.41884496    -0.12900
C357        C  0.97405867  0.46567414  0.22649660     0.25100
C358        C  0.92911061  0.44781904  0.19131371    -0.23000
C359        C  0.92949572  0.46607774  0.13424019     0.20000
C360        C  0.96358499  0.51387757  0.11847769     0.25100
C361        C  0.99619033  0.54212099  0.16059479    -0.22900
C362        C  0.00187003  0.51720667  0.21455803     0.20000
F363        F  0.03455265  0.54250998  0.25586919    -0.12900
F364        F  0.97672115  0.44546866  0.28067000    -0.15200
F365        F  0.95933768  0.53622781  0.06542789    -0.15200
F366        F  0.88770191  0.44673009  0.09891846    -0.12900
C367        C  0.26710726  0.66261166  0.97600930     0.25100
C368        C  0.29951666  0.65092418  0.92575113    -0.23000
C369        C  0.28809578  0.60007503  0.89501595     0.20000
C370        C  0.25686194  0.55600201  0.92281103     0.25100
C371        C  0.23650262  0.56560605  0.97907701    -0.22900
C372        C  0.22816602  0.62172200  0.99680276     0.20000
F373        F  0.19943446  0.63234368  0.04662049    -0.12900
F374        F  0.27837742  0.70980481  0.00900397    -0.15200
F375        F  0.26111147  0.50158693  0.90291736    -0.15200
F376        F  0.31476916  0.58990422  0.84389991    -0.12900
C377        C  0.52294777  0.48261916  0.26270755     0.25100
C378        C  0.50591684  0.53651303  0.28321400    -0.23000
C379        C  0.44749422  0.54450867  0.29320458     0.20000
C380        C  0.40781253  0.50844845  0.26568956     0.25100
C381        C  0.42675169  0.46539990  0.22824409    -0.22900
C382        C  0.48278829  0.44699530  0.23415975     0.20000
F383        F  0.49910546  0.39766992  0.20880197    -0.12900
F384        F  0.57931519  0.46974386  0.26067433    -0.15200
F385        F  0.35198954  0.52147360  0.26733815    -0.15200
F386        F  0.42975900  0.59373863  0.31815162    -0.12900
C387        C  0.59255429  0.82622712  0.00316769     0.25100
C388        C  0.53673183  0.84283659  0.01853160    -0.23000
C389        C  0.52080513  0.84700028  0.07631528     0.20000
C390        C  0.55289090  0.81983980  0.11635954     0.25100
C391        C  0.60083942  0.78911232  0.09825831    -0.22900
C392        C  0.62480282  0.79823267  0.04354596     0.20000
F393        F  0.67391016  0.77256835  0.02693853    -0.12900
F394        F  0.60963198  0.82476860  0.94714210    -0.15200
F395        F  0.52954496  0.81205368  0.16938052    -0.15200
F396        F  0.46661180  0.86135982  0.09115762    -0.12900
C397        C  0.18625601  0.89933453  0.97458438     0.25100
C398        C  0.22943084  0.86134708  0.95722287    -0.23000
C399        C  0.21243152  0.80283932  0.95613938     0.20000
C400        C  0.16031240  0.78297931  0.98274611     0.25100
C401        C  0.12153597  0.82106235  0.00966004    -0.22900
C402        C  0.13366026  0.88005772  0.99883728     0.20000
F403        F  0.09579963  0.92127200  0.01167816    -0.12900
F404        F  0.19423412  0.95653069  0.96757629    -0.15200
F405        F  0.14737029  0.72615441  0.98122332    -0.15200
F406        F  0.24346913  0.76528524  0.92495378    -0.12900
C407        C  0.67660049  0.78884936  0.36479411     0.25100
C408        C  0.62907980  0.82364150  0.35277681    -0.23000
C409        C  0.63452646  0.88074442  0.37314316     0.20000
C410        C  0.68722655  0.90451170  0.39152322     0.25100
C411        C  0.73646368  0.87110971  0.39842251    -0.22900
C412        C  0.72889799  0.81203107  0.38605538     0.20000
F413        F  0.77162525  0.77529563  0.39355888    -0.12900
F414        F  0.67281758  0.73118721  0.35960768    -0.15200
F415        F  0.68933572  0.96151227  0.40290255    -0.15200
F416        F  0.58860507  0.91500391  0.37500172    -0.12900
C417        C  0.41027927  0.14518502  0.01667290     0.25100
C418        C  0.42212324  0.09344618  0.98916994    -0.23000
C419        C  0.40976732  0.08690794  0.93066613     0.20000
C420        C  0.37084488  0.12351003  0.90619550     0.25100
C421        C  0.34393182  0.16425165  0.94152610    -0.22900
C422        C  0.36644341  0.17696898  0.99594289     0.20000
F423        F  0.34550112  0.21974152  0.02957059    -0.12900
F424        F  0.42613044  0.15420112  0.07180923    -0.15200
F425        F  0.35558038  0.11543352  0.85083174    -0.15200
F426        F  0.42542554  0.03902937  0.90149609    -0.12900
C427        C  0.21839876  0.96287944  0.24172983     0.25100
C428        C  0.22264053  0.93595239  0.18757814    -0.23000
C429        C  0.18048450  0.94675854  0.14833225     0.20000
C430        C  0.15540601  0.99968962  0.15048074     0.25100
C431        C  0.16138668  0.03471341  0.19948078    -0.22900
C432        C  0.18756456  0.01323678  0.24784654     0.20000
F433        F  0.18684921  0.04264983  0.29842618    -0.12900
F434        F  0.25058890  0.94528762  0.28522805    -0.15200
F435        F  0.12698525  0.01723778  0.10400368    -0.15200
F436        F  0.18069930  0.91741649  0.09805334    -0.12900
C437        C  0.13097545  0.37862966  0.06102522     0.25100
C438        C  0.11851452  0.37556884  0.00281563    -0.23000
C439        C  0.06298668  0.35589418  0.98815155     0.20000
C440        C  0.03223619  0.31959250  0.02622875     0.25100
C441        C  0.05862547  0.30373671  0.07683301    -0.22900
C442        C  0.10584804  0.33698651  0.09597716     0.20000
F443        F  0.13506754  0.32148925  0.14243436    -0.12900
F444        F  0.18166075  0.40258929  0.07734214    -0.15200
F445        F  0.98202298  0.29429230  0.01024995    -0.15200
F446        F  0.04601850  0.35895992  0.93302099    -0.12900
C447        C  0.20616052  0.41866200  0.25593481     0.25100
C448        C  0.17367727  0.46209865  0.23214380    -0.23000
C449        C  0.11912259  0.44379335  0.21306884     0.20000
C450        C  0.09315060  0.39061350  0.23132652     0.25100
C451        C  0.12288368  0.35191489  0.26548472    -0.22900
C452        C  0.18246494  0.36513001  0.27045504     0.20000
F453        F  0.22031671  0.32525105  0.28433927    -0.12900
F454        F  0.26314621  0.42757897  0.26272159    -0.15200
F455        F  0.04178994  0.37357079  0.21000811    -0.15200
F456        F  0.09582288  0.47231850  0.16987544    -0.12900
C457        C  0.46215246  0.90908864  0.26191467     0.25100
C458        C  0.49546331  0.95667792  0.24202020    -0.23000
C459        C  0.55537826  0.94899126  0.23722086     0.20000
C460        C  0.58042014  0.89780197  0.25653487     0.25100
C461        C  0.54687496  0.85350783  0.28398168    -0.22900
C462        C  0.48658452  0.85906980  0.28066562     0.20000
F463        F  0.44958121  0.81497826  0.29269623    -0.12900
F464        F  0.40396389  0.91068369  0.26288859    -0.15200
F465        F  0.63794727  0.89241483  0.25001737    -0.15200
F466        F  0.58994939  0.99079526  0.21468476    -0.12900
C467        C  0.09033594  0.66966005  0.84767641     0.25100
C468        C  0.03359202  0.64865956  0.84188868    -0.23000
C469        C  0.00833245  0.65498489  0.78886485     0.20000
C470        C  0.02262664  0.70446554  0.75897335     0.25100
C471        C  0.07210818  0.73709619  0.77357513    -0.22900
C472        C  0.10919224  0.71625081  0.81437809     0.20000
F473        F  0.15972774  0.74398205  0.82573581    -0.12900
F474        F  0.12098742  0.65478673  0.89355595    -0.15200
F475        F  0.98743779  0.72099672  0.71698046    -0.15200
F476        F  0.95636411  0.62963550  0.77968108    -0.12900
C477        C  0.00952052  0.02597756  0.59714011     0.25100
C478        C  0.99060009  0.97017385  0.58273429    -0.23000
C479        C  0.93191912  0.95728155  0.58325347     0.20000
C480        C  0.89518492  0.99349104  0.61213478     0.25100
C481        C  0.91764562  0.04026428  0.64359743    -0.22900
C482        C  0.97399667  0.05979000  0.63208432     0.20000
F483        F  0.99637920  0.10595149  0.66056508    -0.12900
F484        F  0.06564551  0.04096627  0.58979006    -0.15200
F485        F  0.84072869  0.97441885  0.62177052    -0.15200
F486        F  0.91322977  0.90269381  0.57380320    -0.12900
C487        C  0.74906507  0.86022024  0.85419119     0.25100
C488        C  0.74229857  0.91501641  0.87700818    -0.23000
C489        C  0.75473147  0.92521158  0.93517901     0.20000
C490        C  0.78993939  0.88752371  0.96345387     0.25100
C491        C  0.81166800  0.84080051  0.93261177    -0.22900
C492        C  0.78735907  0.82510682  0.87976237     0.20000
F493        F  0.80721104  0.78058696  0.84838485    -0.12900
F494        F  0.73495772  0.84884116  0.79890727    -0.15200
F495        F  0.80783403  0.90023880  0.01720203    -0.15200
F496        F  0.74224540  0.97600592  0.96041532    -0.12900
C497        C  0.74670001  0.01596844  0.53903500     0.25100
C498        C  0.72561433  0.98049732  0.58448700    -0.23000
C499        C  0.73622571  0.92137150  0.57701070     0.20000
C500        C  0.75801641  0.89858040  0.52532857     0.25100
C501        C  0.77555738  0.93307342  0.47838133    -0.22900
C502        C  0.77133115  0.99302139  0.48749228     0.20000
F503        F  0.78813082  0.03028632  0.44617608    -0.12900
F504        F  0.74199297  0.07354130  0.54337008    -0.15200
F505        F  0.76271384  0.84096642  0.52164125    -0.15200
F506        F  0.72833529  0.88432971  0.62062729    -0.12900
C507        C  0.77548298  0.61868260  0.03557086     0.25100
C508        C  0.76859384  0.59220936  0.98005928    -0.23000
C509        C  0.73608076  0.54040332  0.98027828     0.20000
C510        C  0.71456370  0.51557853  0.03164707     0.25100
C511        C  0.72587227  0.53971696  0.08747663    -0.22900
C512        C  0.75863149  0.59156312  0.08704520     0.20000
F513        F  0.76845789  0.62086643  0.13671750    -0.12900
F514        F  0.79156676  0.67479772  0.04097070    -0.15200
F515        F  0.67945620  0.46915932  0.02406460    -0.15200
F516        F  0.71948192  0.51530613  0.93042504    -0.12900
C517        C  0.43517454  0.96521048  0.78175191     0.25100
C518        C  0.49381552  0.97696068  0.77508890    -0.23000
C519        C  0.51254540  0.02654891  0.74630786     0.20000
C520        C  0.47529151  0.05303830  0.70959673     0.25100
C521        C  0.41817265  0.03362051  0.70760010    -0.22900
C522        C  0.39743935  0.99272651  0.74699529     0.20000
F523        F  0.34327895  0.97106502  0.74326083    -0.12900
F524        F  0.41654042  0.91785167  0.81015153    -0.15200
F525        F  0.49693107  0.08918810  0.66913499    -0.15200
F526        F  0.56945600  0.03850613  0.74120513    -0.12900
C527        C  0.29782872  0.89660754  0.39928263     0.25100
C528        C  0.30902112  0.84643830  0.42816060    -0.23000
C529        C  0.27204390  0.82841137  0.47306594     0.20000
C530        C  0.23060514  0.86446067  0.49473019     0.25100
C531        C  0.23165263  0.92071473  0.47640384    -0.22900
C532        C  0.25622498  0.93284329  0.42234935     0.20000
F533        F  0.25166681  0.98577750  0.40098207    -0.12900
F534        F  0.33246497  0.91425082  0.35520393    -0.15200
F535        F  0.20535214  0.85188275  0.54583801    -0.15200
F536        F  0.28271001  0.78108505  0.50289981    -0.12900
C537        C  0.55476998  0.66342736  0.57992207     0.25100
C538        C  0.55623856  0.67668024  0.52184547    -0.23000
C539        C  0.60194523  0.71042927  0.49993293     0.20000
C540        C  0.63171645  0.74691716  0.53720607     0.25100
C541        C  0.62469404  0.73974670  0.59611167    -0.22900
C542        C  0.59277855  0.69223537  0.61643279     0.20000
F543        F  0.58861367  0.68305254  0.67324212    -0.12900
F544        F  0.51067506  0.63117976  0.60225411    -0.15200
F545        F  0.65828942  0.79482691  0.51633944    -0.15200
F546        F  0.60436715  0.72153320  0.44329556    -0.12900
C547        C  0.27895947  0.97986131  0.87238036     0.25100
C548        C  0.27626165  0.91969983  0.87945150    -0.23000
C549        C  0.25442804  0.88752327  0.83248062     0.20000
C550        C  0.23236471  0.91289951  0.78399904     0.25100
C551        C  0.22646472  0.97304094  0.77994243    -0.22900
C552        C  0.25574101  0.00578943  0.82309288     0.20000
F553        F  0.26002697  0.06346528  0.81870714    -0.12900
F554        F  0.30148737  0.01413019  0.91390298    -0.15200
F555        F  0.21985364  0.87683649  0.73985620    -0.15200
F556        F  0.25333763  0.82956425  0.83326047    -0.12900
C557        C  0.68184830  0.69919006  0.81800660     0.25100
C558        C  0.62951304  0.70529675  0.84985927    -0.23000
C559        C  0.63212260  0.69275957  0.90898036     0.20000
C560        C  0.68189361  0.67038375  0.93326095     0.25100
C561        C  0.73328508  0.66069288  0.90042542    -0.22900
C562        C  0.73213059  0.67959083  0.84272177     0.20000
F563        F  0.77917196  0.67643149  0.80764907    -0.12900
F564        F  0.68369916  0.70787435  0.76051375    -0.15200
F565        F  0.67789551  0.65814099  0.98973795    -0.15200
F566        F  0.58585356  0.69907359  0.94421016    -0.12900
C567        C  0.22738689  0.67610564  0.52592440     0.25100
C568        C  0.23483691  0.66541888  0.46625796    -0.23000
C569        C  0.18777002  0.68070198  0.43193419     0.20000
C570        C  0.13587847  0.70108213  0.45635444     0.25100
C571        C  0.12695893  0.70486652  0.51650863    -0.22900
C572        C  0.17464471  0.69154008  0.55016866     0.20000
F573        F  0.17117695  0.69368094  0.60823432    -0.12900
F574        F  0.27151382  0.67208765  0.56251573    -0.15200
F575        F  0.09386441  0.71396836  0.41999465    -0.15200
F576        F  0.19051285  0.67609182  0.37406513    -0.12900
C577        C  0.28435450  0.62395537  0.32921230     0.25100
C578        C  0.27361585  0.59952170  0.38455120    -0.23000
C579        C  0.23519569  0.55157164  0.38480593     0.20000
C580        C  0.21322055  0.52716601  0.33384598     0.25100
C581        C  0.23147780  0.54634084  0.27814775    -0.22900
C582        C  0.26621242  0.59694434  0.27809297     0.20000
F583        F  0.27872196  0.62421289  0.22823497    -0.12900
F584        F  0.30334684  0.67902614  0.32360673    -0.15200
F585        F  0.16868467  0.48906804  0.34107898    -0.15200
F586        F  0.21188626  0.53210871  0.43476683    -0.12900
C587        C  0.07417656  0.18807422  0.51551994     0.25100
C588        C  0.13052801  0.16987813  0.52051752    -0.23000
C589        C  0.15792334  0.17859459  0.57276258     0.20000
C590        C  0.14200467  0.22481714  0.60660255     0.25100
C591        C  0.09078106  0.25217523  0.59558451    -0.22900
C592        C  0.05425398  0.23026013  0.55323357     0.20000
F593        F  0.00322723  0.25425999  0.54413546    -0.12900
F594        F  0.04578620  0.17737013  0.46629094    -0.15200
F595        F  0.17642598  0.24275835  0.65007114    -0.15200
F596        F  0.20992215  0.15615975  0.58097336    -0.12900
C597        C  0.38706754  0.44194420  0.41448092     0.25100
C598        C  0.40419169  0.42710312  0.46947448    -0.23000
C599        C  0.41234101  0.37010128  0.48246302     0.20000
C600        C  0.39088483  0.32786232  0.44580496     0.25100
C601        C  0.36166040  0.34308682  0.39657302    -0.22900
C602        C  0.36639767  0.39918740  0.37751337     0.20000
F603        F  0.34051003  0.41376057  0.32903158    -0.12900
F604        F  0.37771449  0.49736275  0.40207443    -0.15200
F605        F  0.38643245  0.27381305  0.46520861    -0.15200
F606        F  0.42858017  0.35572849  0.53577665    -0.12900
C607        C  0.26037962  0.50889763  0.75558709     0.25100
C608        C  0.23908205  0.55184164  0.72143028    -0.23000
C609        C  0.18436322  0.57215404  0.73430672     0.20000
C610        C  0.14864546  0.54197480  0.77348966     0.25100
C611        C  0.16523117  0.48841631  0.79218549    -0.22900
C612        C  0.22361121  0.47711533  0.79109356     0.20000
F613        F  0.24159001  0.42650209  0.81059595    -0.12900
F614        F  0.31351131  0.48971392  0.74570256    -0.15200
F615        F  0.09376137  0.55712047  0.78224485    -0.15200
F616        F  0.16373508  0.61613503  0.70480367    -0.12900
C617        C  0.10961354  0.14816110  0.73520850     0.25100
C618        C  0.10641560  0.16171862  0.79407953    -0.23000
C619        C  0.11893515  0.11626190  0.83114540     0.20000
C620        C  0.13951087  0.06342843  0.81045756     0.25100
C621        C  0.15442129  0.05426381  0.75173901    -0.22900
C622        C  0.13354262  0.09627768  0.71436987     0.20000
F623        F  0.13445746  0.08691082  0.65714472    -0.12900
F624        F  0.08523420  0.18293228  0.69795664    -0.15200
F625        F  0.14300992  0.02076402  0.84882757    -0.15200
F626        F  0.11006784  0.12224325  0.88858997    -0.12900
C627        C  0.34722299  0.06433148  0.34145544     0.25100
C628        C  0.38184091  0.08026698  0.38892864    -0.23000
C629        C  0.43711105  0.05698244  0.38764306     0.20000
C630        C  0.46209770  0.03685730  0.33608496     0.25100
C631        C  0.43016336  0.03011011  0.28501785    -0.22900
C632        C  0.37072974  0.03996469  0.29083467     0.20000
F633        F  0.33405074  0.02627820  0.24840297    -0.12900
F634        F  0.28958875  0.06912944  0.34400746    -0.15200
F635        F  0.51845959  0.02410806  0.33662304    -0.15200
F636        F  0.46888936  0.05669656  0.43576389    -0.12900
C637        C  0.41849520  0.51070747  0.82420052     0.25100
C638        C  0.42850452  0.47859323  0.77225208    -0.23000
C639        C  0.41390468  0.41954383  0.77568933     0.20000
C640        C  0.40245458  0.39297134  0.82838792     0.25100
C641        C  0.39389332  0.42448497  0.88022901    -0.22900
C642        C  0.39911989  0.48454463  0.87577211     0.20000
F643        F  0.38880742  0.51906368  0.92167476    -0.12900
F644        F  0.42623680  0.56813882  0.82684129    -0.15200
F645        F  0.39934579  0.33491221  0.82815145    -0.15200
F646        F  0.41083432  0.38616985  0.72779772    -0.12900
C647        C  0.46962932  0.61482301  0.73213172     0.25100
C648        C  0.49468907  0.55992122  0.73227836    -0.23000
C649        C  0.54698304  0.55798153  0.76207692     0.20000
C650        C  0.57405537  0.60741479  0.78610312     0.25100
C651        C  0.55012728  0.66279483  0.78265010    -0.22900
C652        C  0.49758919  0.66428432  0.75325857     0.20000
F653        F  0.46816804  0.71320006  0.75044523    -0.12900
F654        F  0.41282554  0.62042335  0.72277465    -0.15200
F655        F  0.62181170  0.59810069  0.81619821    -0.15200
F656        F  0.56964640  0.50737304  0.77502370    -0.12900
C657        C  0.53089817  0.30269227  0.83105929     0.25100
C658        C  0.51515843  0.27077561  0.78263378    -0.23000
C659        C  0.52621711  0.21208615  0.78015537     0.20000
C660        C  0.56567192  0.18966974  0.81790127     0.25100
C661        C  0.59249292  0.22670696  0.85745594    -0.22900
C662        C  0.57205317  0.28194268  0.86602096     0.20000
F663        F  0.59963133  0.31991144  0.90073984    -0.12900
F664        F  0.52131329  0.35963632  0.83392317    -0.15200
F665        F  0.58311795  0.13529262  0.81076945    -0.15200
F666        F  0.50763590  0.18004324  0.73507714    -0.12900
C667        C  0.84656383  0.41666878  0.98375917     0.25100
C668        C  0.84941547  0.35903600  0.96817108    -0.23000
C669        C  0.89168277  0.34148402  0.92868769     0.20000
C670        C  0.92283986  0.38183138  0.89680035     0.25100
C671        C  0.91025002  0.43938356  0.90362934    -0.22900
C672        C  0.87959931  0.45712455  0.95303875     0.20000
F673        F  0.87067093  0.51348845  0.96269703    -0.12900
F674        F  0.80547721  0.43404409  0.02150341    -0.15200
F675        F  0.95359741  0.36425736  0.85014912    -0.15200
F676        F  0.89315769  0.28609642  0.91166379    -0.12900
C677        C  0.68370964  0.55135805  0.64290143     0.25100
C678        C  0.73350386  0.52162408  0.65304135    -0.23000
C679        C  0.74932982  0.47677952  0.61590108     0.20000
C680        C  0.71332038  0.45892524  0.57205386     0.25100
C681        C  0.65677228  0.47666409  0.57468322    -0.22900
C682        C  0.64495490  0.52881768  0.60270319     0.20000
F683        F  0.59065811  0.54785949  0.60361407    -0.12900
F684        F  0.66853019  0.59547259  0.67785650    -0.15200
F685        F  0.72590546  0.41061105  0.54205652    -0.15200
F686        F  0.79516093  0.44484273  0.62735123    -0.12900
C687        C  0.96012228  0.18896232  0.93338079     0.25100
C688        C  0.91612002  0.16778979  0.89677360    -0.23000
C689        C  0.92657979  0.17643626  0.83736223     0.20000
C690        C  0.98100919  0.19208588  0.81570973     0.25100
C691        C  0.02761478  0.20702387  0.85167396    -0.22900
C692        C  0.01479801  0.20763851  0.91153862     0.20000
F693        F  0.05466812  0.22351938  0.95014553    -0.12900
F694        F  0.95131281  0.18845740  0.99111027    -0.15200
F695        F  0.98770033  0.19300500  0.75774714    -0.15200
F696        F  0.88404722  0.17046780  0.79877880    -0.12900
C697        C  0.00303158  0.55968858  0.55130520     0.25100
C698        C  0.99556304  0.54680757  0.61074123    -0.23000
C699        C  0.02268394  0.58696686  0.64790404     0.20000
C700        C  0.04699216  0.64013959  0.62859424     0.25100
C701        C  0.04455538  0.65724404  0.57092814    -0.22900
C702        C  0.02649451  0.61310091  0.53231290     0.20000
F703        F  0.03279095  0.62042992  0.47490388    -0.12900
F704        F  0.99001952  0.52050149  0.50988968    -0.15200
F705        F  0.07838358  0.67222338  0.66537083    -0.15200
F706        F  0.02735900  0.57343210  0.70344695    -0.12900
C707        C  0.60298370  0.10307150  0.54455760     0.25100
C708        C  0.59994672  0.15572809  0.57571215    -0.23000
C709        C  0.61584063  0.15388406  0.63378908     0.20000
C710        C  0.64061052  0.10495347  0.65667795     0.25100
C711        C  0.65107160  0.05489335  0.62269423    -0.22900
C712        C  0.62416596  0.05335950  0.56878499     0.20000
F713        F  0.62158469  0.00419731  0.53709742    -0.12900
F714        F  0.58679627  0.09935028  0.48902625    -0.15200
F715        F  0.65013671  0.10682449  0.71368445    -0.15200
F716        F  0.60839171  0.19915215  0.66957094    -0.12900
C717        C  0.47712688  0.18350218  0.54529626     0.25100
C718        C  0.52649923  0.19624146  0.51085404    -0.23000
C719        C  0.51875624  0.19420090  0.45065634     0.20000
C720        C  0.46505561  0.17640611  0.42695355     0.25100
C721        C  0.41722689  0.15880100  0.46232450    -0.22900
C722        C  0.42383294  0.16939933  0.52195529     0.20000
F723        F  0.37833241  0.16753352  0.55914305    -0.12900
F724        F  0.48000543  0.18594762  0.60342314    -0.15200
F725        F  0.46089418  0.17372613  0.36898481    -0.15200
F726        F  0.56319428  0.20626397  0.41409654    -0.12900
C727        C  0.75555990  0.09473555  0.15478086     0.25100
C728        C  0.74103824  0.03996366  0.17591756    -0.23000
C729        C  0.70103491  0.00509978  0.14652341     0.20000
C730        C  0.66666991  0.02988987  0.10586508     0.25100
C731        C  0.67181681  0.08913438  0.09797065    -0.22900
C732        C  0.72373226  0.11713961  0.11151572     0.20000
F733        F  0.73306841  0.17290040  0.09790600    -0.12900
F734        F  0.80027946  0.12651639  0.17603309    -0.15200
F735        F  0.62052782  0.99988894  0.08541353    -0.15200
F736        F  0.69202696  0.94942242  0.16038841    -0.12900
C737        C  0.63535120  0.35039538  0.30280071     0.25100
C738        C  0.62504040  0.34195921  0.36119207    -0.23000
C739        C  0.56865719  0.32916872  0.38076892     0.20000
C740        C  0.52825854  0.30788358  0.34150100     0.25100
C741        C  0.54458300  0.30194186  0.28374925    -0.22900
C742        C  0.59417697  0.33172265  0.26410575     0.20000
F743        F  0.60924826  0.32941615  0.20805069    -0.12900
F744        F  0.68905998  0.36439305  0.28304894    -0.15200
F745        F  0.47748094  0.28512586  0.36056101    -0.15200
F746        F  0.55666187  0.32555741  0.43786785    -0.12900
C747        C  0.88289686  0.10926988  0.49022367     0.25100
C748        C  0.87481003  0.16545146  0.47319615    -0.23000
C749        C  0.91357157  0.18950875  0.43292055     0.20000
C750        C  0.94733780  0.15427424  0.39850353     0.25100
C751        C  0.94109702  0.09505315  0.40427479    -0.22900
C752        C  0.91769557  0.07387870  0.45615888     0.20000
F753        F  0.91625173  0.01677657  0.46572261    -0.12900
F754        F  0.85256184  0.08733564  0.53519615    -0.15200
F755        F  0.97517162  0.17651857  0.35189121    -0.15200
F756        F  0.91077083  0.24517631  0.41965261    -0.12900
C757        C  0.86882553  0.04668216  0.06544604     0.25100
C758        C  0.92838213  0.04086912  0.07147597    -0.23000
C759        C  0.96194735  0.04881685  0.02039744     0.20000
C760        C  0.93842198  0.06929907  0.96996595     0.25100
C761        C  0.88183222  0.08971779  0.96936097    -0.22900
C762        C  0.84584406  0.07108335  0.01582042     0.20000
F763        F  0.78804764  0.07058342  0.01126085    -0.12900
F764        F  0.83254626  0.02155221  0.10370063    -0.15200
F765        F  0.97228138  0.07041675  0.92183268    -0.15200
F766        F  0.01755022  0.03315105  0.01781038    -0.12900
C767        C  0.96242481  0.92411521  0.06859781     0.25100
C768        C  0.98634037  0.95977556  0.11186118    -0.23000
C769        C  0.03062093  0.93508130  0.14317181     0.20000
C770        C  0.05534999  0.88215913  0.12509676     0.25100
C771        C  0.03599010  0.85127712  0.07612346    -0.22900
C772        C  0.98956050  0.87610271  0.04764833     0.20000
F773        F  0.97231389  0.85869987  0.99510444    -0.12900
F774        F  0.91187029  0.93521061  0.04421188    -0.15200
F775        F  0.09948648  0.86161127  0.15436379    -0.15200
F776        F  0.04839047  0.96096375  0.19234029    -0.12900
C777        C  0.57469915  0.40216224  0.10792265     0.25100
C778        C  0.60890785  0.35545007  0.09058723    -0.23000
C779        C  0.66761395  0.36022521  0.10516478     0.20000
C780        C  0.69248084  0.41196291  0.12389528     0.25100
C781        C  0.65981324  0.46163535  0.13332352    -0.22900
C782        C  0.59960385  0.45458346  0.12781946     0.20000
F783        F  0.56421914  0.49833228  0.13863458    -0.12900
F784        F  0.51688984  0.39863597  0.10213196    -0.15200
F785        F  0.75035330  0.41394549  0.13001821    -0.15200
F786        F  0.70210340  0.31458660  0.10191792    -0.12900
C787        C  0.44666528  0.30350756  0.95984623     0.25100
C788        C  0.43939280  0.36259949  0.95322354    -0.23000
C789        C  0.48879803  0.39782710  0.96326541     0.20000
C790        C  0.53757562  0.37644608  0.98864970     0.25100
C791        C  0.53717409  0.32072776  0.01178579    -0.22900
C792        C  0.49430372  0.28276175  0.98947917     0.20000
F793        F  0.50089838  0.22560505  0.99199987    -0.12900
F794        F  0.41086650  0.26600446  0.93317138    -0.15200
F795        F  0.58530197  0.41098455  0.99053755    -0.15200
F796        F  0.49067609  0.45357065  0.94808565    -0.12900
C797        C  0.92712606  0.32859353  0.33299294     0.25100
C798        C  0.92907677  0.36199364  0.38402674    -0.23000
C799        C  0.98603326  0.38101729  0.39902048     0.20000
C800        C  0.03627723  0.35819467  0.37308558     0.25100
C801        C  0.03416524  0.31868515  0.32654235    -0.22900
C802        C  0.97752400  0.30953838  0.30410123     0.20000
F803        F  0.96950219  0.28901414  0.25014295    -0.12900
F804        F  0.87613027  0.31798065  0.30738455    -0.15200
F805        F  0.08768491  0.38012065  0.39041445    -0.15200
F806        F  0.99463287  0.42612376  0.43529452    -0.12900
C807        C  0.86215713  0.46006550  0.50154533     0.25100
C808        C  0.88689654  0.41121238  0.47630088    -0.23000
C809        C  0.92117765  0.38024511  0.51315981     0.20000
C810        C  0.94429701  0.40461449  0.56301750     0.25100
C811        C  0.92803463  0.45916030  0.58440871    -0.22900
C812        C  0.88341451  0.48462208  0.55378896     0.20000
F813        F  0.86020452  0.53322800  0.57479141    -0.12900
F814        F  0.81365364  0.47992389  0.47925707    -0.15200
F815        F  0.98551004  0.37444748  0.58703043    -0.15200
F816        F  0.93602354  0.32638599  0.49852455    -0.12900
loop_ 
_geom_bond_atom_site_label_1 
_geom_bond_atom_site_label_2 
_geom_bond_distance 
_geom_bond_site_symmetry_2 
_ccdc_geom_bond_type 
C1            C5   1.549       .  S
C1          C304   1.558       .  S
C1          C798   1.613       .  S
C1          C808   1.581       .  S
C2           C31   1.546       .  S
C2           C78   1.544       .  S
C2          C778   1.579       .  S
C2          C791   1.584       .  S
C3           C18   1.547       .  S
C3          C220   1.562       .  S
C3          C758   1.583       .  S
C3          C768   1.583   1_545  S
In4           O6   2.227       .  S
In4           O7   2.302       .  S
In4          O15   2.179       .  S
In4           O9   2.209       .  S
In4          O11   2.259       .  S
In4          O12   2.240       .  S
In4          O13   2.229       .  S
In4          O16   2.201       .  S
C5           O11   1.270       .  A
C5           O13   1.281       .  A
O6           C14   1.279       .  A
O7           C14   1.271       .  A
C8           O15   1.278       .  A
C8            O9   1.268       .  A
C8          C738   1.458       .  S
C10          O12   1.269       .  A
C10          O16   1.275       .  A
C10         C748   1.473       .  S
C14          C43   1.558       .  S
In17         O19   2.247   1_545  S
In17         O20   2.268   1_545  S
In17         O28   2.190       .  S
In17         O22   2.254       .  S
In17         O24   2.237       .  S
In17         O25   2.207   1_545  S
In17         O26   2.297   1_545  S
In17         O29   2.151       .  S
C18          O24   1.260       .  A
C18          O26   1.278   1_545  A
O19          C27   1.276       .  A
O20          C27   1.261       .  A
C21          O28   1.264       .  A
C21          O22   1.263       .  A
C21         C751   1.461       .  S
C23          O25   1.271   1_545  A
C23          O29   1.269       .  A
C23         C728   1.452       .  S
C27         C296   1.551       .  S
In30         O32   2.317       .  S
In30         O33   2.254       .  S
In30         O41   2.125       .  S
In30         O35   2.229       .  S
In30         O37   2.225       .  S
In30         O38   2.260       .  S
In30         O39   2.305       .  S
In30         O42   2.175       .  S
C31          O37   1.263       .  A
C31          O39   1.280       .  A
O32          C40   1.264       .  A
O33          C40   1.280       .  A
C34          O41   1.271       .  A
C34          O35   1.267       .  A
C34         C731   1.447       .  S
C36          O38   1.269       .  A
C36          O42   1.266       .  A
C36         C741   1.467       .  S
C40         C212   1.566       .  S
C43          C60   1.570       .  S
C43         C708   1.577       .  S
C43         C718   1.580       .  S
C44          C47   1.559       .  S
C44         C111   1.564       .  S
C44         C698   1.607       .  S
C44         C811   1.591       .  S
C45          C73   1.551       .  S
C45         C182   1.539       .  S
C45         C688   1.587       .  S
C45         C761   1.589       .  S
In46         O48   2.166       .  S
In46         O49   2.211       .  S
In46         O57   2.171       .  S
In46         O51   2.221       .  S
In46         O53   2.247       .  S
In46         O54   2.302       .  S
In46         O55   2.312       .  S
In46         O58   2.245       .  S
C47          O53   1.267       .  A
C47          O55   1.276       .  A
O48          C56   1.272       .  A
O49          C56   1.271       .  A
C50          O57   1.272       .  A
C50          O51   1.266       .  A
C50         C671   1.454       .  S
C52         C169   1.575       .  S
C52          O54   1.266       .  A
C52          O58   1.281       .  A
C56         C678   1.454       .  S
In59         O61   2.132       .  S
In59         O62   2.234       .  S
In59         O70   2.130       .  S
In59         O64   2.226       .  S
In59         O66   2.258       .  S
In59         O67   2.273       .  S
In59         O68   2.255       .  S
In59         O71   2.258       .  S
C60          O66   1.268       .  A
C60          O68   1.283       .  A
O61          C69   1.271       .  A
O62          C69   1.271       .  A
C63          O70   1.271       .  A
C63          O64   1.269       .  A
C63         C681   1.451       .  S
C65          C85   1.571       .  S
C65          O67   1.265       .  A
C65          O71   1.285       .  A
C69         C658   1.452       .  S
In72         O74   2.165       .  S
In72         O75   2.227   1_556  S
In72         O83   2.173       .  S
In72         O77   2.243       .  S
In72         O79   2.232       .  S
In72         O80   2.239       .  S
In72         O81   2.286       .  S
In72         O84   2.274   1_556  S
C73          O79   1.264       .  A
C73          O81   1.274       .  A
O74          C82   1.267       .  A
O75          C82   1.267   1_554  A
C76          O83   1.267       .  A
C76          O77   1.267       .  A
C76         C661   1.459       .  S
C78          O80   1.263   1_554  A
C78          O84   1.278       .  A
C82         C668   1.451       .  S
C85          C89   1.550       .  S
C85         C638   1.592       .  S
C85         C648   1.588       .  S
C86         C115   1.561       .  S
C86         C162   1.551       .  S
C86         C628   1.586       .  S
C86         C721   1.593       .  S
C87         C102   1.571       .  S
C87         C246   1.554       .  S
C87         C618   1.584       .  S
C87         C691   1.578       .  S
In88         O90   2.221       .  S
In88         O91   2.281       .  S
In88         O99   2.167       .  S
In88         O93   2.190       .  S
In88         O95   2.250       .  S
In88         O96   2.244       .  S
In88         O97   2.233       .  S
In88        O100   2.189       .  S
C89          O95   1.267       .  A
C89          O97   1.278       .  A
O90          C98   1.279       .  A
O91          C98   1.266       .  A
C92          O99   1.274       .  A
C92          O93   1.263       .  A
C92         C598   1.441       .  S
C94          O96   1.270       .  A
C94         O100   1.271       .  A
C94         C608   1.467       .  S
C98         C127   1.565       .  S
In101       O103   2.316       .  S
In101       O104   2.269   1_455  S
In101       O112   2.155       .  S
In101       O106   2.253       .  S
In101       O108   2.279       .  S
In101       O109   2.199       .  S
In101       O110   2.297       .  S
In101       O113   2.172       .  S
C102        O108   1.261       .  A
C102        O110   1.282       .  A
O103        C111   1.263   1_455  A
O104        C111   1.280       .  A
C105        O112   1.265       .  A
C105        O106   1.269       .  A
C105        C611   1.460       .  S
C107        O109   1.266       .  A
C107        O113   1.268       .  A
C107        C591   1.446       .  S
In114       O116   2.285       .  S
In114       O117   2.300       .  S
In114       O125   2.112       .  S
In114       O119   2.225       .  S
In114       O121   2.262       .  S
In114       O122   2.231       .  S
In114       O123   2.271       .  S
In114       O126   2.160       .  S
C115        O121   1.265       .  A
C115        O123   1.280       .  A
O116        C124   1.283       .  A
O117        C124   1.265       .  A
C118        O125   1.270       .  A
C118        O119   1.269       .  A
C118        C588   1.442       .  S
C120        O122   1.267       .  A
C120        O126   1.268       .  A
C120        C601   1.453       .  S
C124        C213   1.574       .  S
C127        C131   1.542       .  S
C127        C568   1.589       .  S
C127        C578   1.586       .  S
C128        C144   1.554       .  S
C128        C279   1.558       .  S
C128        C558   1.590       .  S
C128        C651   1.586       .  S
C129        C157   1.554       .  S
C129        C195   1.561   1_545  S
C129        C551   1.602   1_545  S
C129        C621   1.606       .  S
In130       O132   2.181       .  S
In130       O133   2.222       .  S
In130       O141   2.185       .  S
In130       O135   2.215       .  S
In130       O137   2.241       .  S
In130       O138   2.237       .  S
In130       O139   2.233       .  S
In130       O142   2.299       .  S
C131        O137   1.276       .  A
C131        O139   1.262       .  A
O132        C140   1.272       .  A
O133        C140   1.268       .  A
C134        O141   1.269       .  A
C134        O135   1.262       .  A
C134        C538   1.447       .  S
C136        C253   1.554       .  S
C136        O138   1.275       .  A
C136        O142   1.266       .  A
C140        C528   1.456       .  S
In143       O145   2.162       .  S
In143       O146   2.214       .  S
In143       O154   2.168       .  S
In143       O148   2.217       .  S
In143       O150   2.266       .  S
In143       O151   2.220       .  S
In143       O152   2.224       .  S
In143       O155   2.290       .  S
C144        O150   1.279       .  A
C144        O152   1.266       .  A
O145        C153   1.272       .  A
O146        C153   1.270       .  A
C147        O154   1.271       .  A
C147        O148   1.266       .  A
C147        C518   1.452       .  S
C149        C171   1.555   1_565  S
C149        O151   1.280       .  A
C149        O155   1.267       .  A
C153        C541   1.449       .  S
In156       O158   2.172   1_545  S
In156       O159   2.229       .  S
In156       O167   2.147   1_545  S
In156       O161   2.230       .  S
In156       O163   2.230   1_545  S
In156       O164   2.266       .  S
In156       O165   2.290       .  S
In156       O168   2.271       .  S
C157        O163   1.266   1_545  A
C157        O165   1.277       .  A
O158        C166   1.268   1_565  A
O159        C166   1.269       .  A
C160        O167   1.270       .  A
C160        O161   1.266   1_565  A
C160        C531   1.452       .  S
C162        O164   1.277       .  A
C162        O168   1.266       .  A
C166        C521   1.456       .  S
C169        C199   1.541       .  S
C169        C508   1.596       .  S
C169        C561   1.599       .  S
C170        C186   1.561       .  S
C170        C317   1.579       .  S
C170        C571   1.577       .  S
C170        C701   1.594       .  S
C171        C173   1.551       .  S
C171        C498   1.596   1_545  S
C171        C711   1.594       .  S
In172       O174   2.227       .  S
In172       O175   2.256       .  S
In172       O183   2.152   1_545  S
In172       O177   2.244       .  S
In172       O179   2.273       .  S
In172       O180   2.238       .  S
In172       O181   2.216   1_545  S
In172       O184   2.174       .  S
C173        O179   1.273       .  A
C173        O181   1.265   1_545  A
O174        C182   1.278       .  A
O175        C182   1.265       .  A
C176        O183   1.270       .  A
C176        O177   1.266   1_565  A
C176        C488   1.458       .  S
C178        O180   1.267       .  A
C178        O184   1.269       .  A
C178        C481   1.459       .  S
In185       O187   2.310       .  S
In185       O188   2.249       .  S
In185       O196   2.162       .  S
In185       O190   2.232       .  S
In185       O192   2.283       .  S
In185       O193   2.207       .  S
In185       O194   2.263       .  S
In185       O197   2.165       .  S
C186        O192   1.276       .  A
C186        O194   1.263       .  A
O187        C195   1.265       .  A
O188        C195   1.278       .  A
C189        O196   1.268       .  A
C189        O190   1.263       .  A
C189        C478   1.453   1_455  S
C191        O193   1.269       .  A
C191        O197   1.271       .  A
C191        C471   1.453       .  S
In198       O200   2.261   1_655  S
In198       O201   2.234   1_556  S
In198       O209   2.085       .  S
In198       O203   2.231       .  S
In198       O205   2.234       .  S
In198       O206   2.253       .  S
In198       O207   2.228       .  S
In198       O210   2.180       .  S
C199        O205   1.258       .  A
C199        O207   1.281       .  A
O200        C208   1.260   1_556  A
O201        C208   1.279   1_655  A
C202        O209   1.271       .  A
C202        O203   1.268       .  A
C202        C468   1.445   1_655  S
C204        O206   1.269       .  A
C204        O210   1.268       .  A
C204        C491   1.465       .  S
C208        C297   1.530       .  S
C211        C241   1.563       .  S
C211        C292   1.570       .  S
C211        C641   1.577       .  S
C211        C788   1.570       .  S
C212        C228   1.549   1_545  S
C212        C458   1.582   1_545  S
C212        C631   1.574       .  S
C213        C215   1.544       .  S
C213        C451   1.592       .  S
C213        C801   1.611       .  S
In214       O216   2.190       .  S
In214       O217   2.262       .  S
In214       O225   2.175       .  S
In214       O219   2.212       .  S
In214       O221   2.256       .  S
In214       O222   2.289       .  S
In214       O223   2.251       .  S
In214       O226   2.248   1_455  S
C215        O221   1.274       .  A
C215        O223   1.263       .  A
O216        C224   1.267       .  A
O217        C224   1.268       .  A
C218        O225   1.268       .  A
C218        O219   1.263       .  A
C218        C431   1.452       .  S
C220        O222   1.263   1_655  A
C220        O226   1.276       .  A
C224        C441   1.471       .  S
In227       O229   2.118       .  S
In227       O230   2.246       .  S
In227       O238   2.098   1_565  S
In227       O232   2.227   1_565  S
In227       O234   2.223   1_565  S
In227       O235   2.292       .  S
In227       O236   2.247       .  S
In227       O239   2.242       .  S
C228        O234   1.265   1_565  A
C228        O236   1.280       .  A
O229        C237   1.268       .  A
O230        C237   1.271       .  A
C231        O238   1.270       .  A
C231        O232   1.270       .  A
C231        C418   1.446   1_554  S
C233        C255   1.576       .  S
C233        O235   1.267   1_556  A
C233        O239   1.284   1_556  A
C237        C428   1.451       .  S
In240       O242   2.164       .  S
In240       O243   2.235       .  S
In240       O251   2.153       .  S
In240       O245   2.250       .  S
In240       O247   2.267       .  S
In240       O248   2.263       .  S
In240       O249   2.256       .  S
In240       O252   2.243       .  S
C241        O247   1.280       .  A
C241        O249   1.262       .  A
O242        C250   1.268       .  A
O243        C250   1.270       .  A
C244        O251   1.269       .  A
C244        O245   1.266       .  A
C244        C438   1.464   1_556  S
C246        O248   1.261       .  A
C246        O252   1.281       .  A
C250        C421   1.462       .  S
C253        C257   1.553       .  S
C253        C408   1.594       .  S
C253        C461   1.598       .  S
C254        C283   1.556       .  S
C254        C330   1.568       .  S
C254        C448   1.585       .  S
C254        C581   1.588       .  S
C255        C270   1.551       .  S
C255        C398   1.574       .  S
C255        C548   1.582       .  S
In256       O258   2.216       .  S
In256       O259   2.273       .  S
In256       O267   2.188       .  S
In256       O261   2.240       .  S
In256       O263   2.239       .  S
In256       O264   2.223       .  S
In256       O265   2.255       .  S
In256       O268   2.161       .  S
C257        O263   1.268       .  A
C257        O265   1.274       .  A
O258        C266   1.279       .  A
O259        C266   1.268       .  A
C260        O267   1.273       .  A
C260        O261   1.268       .  A
C260        C378   1.465       .  S
C262        O264   1.269       .  A
C262        O268   1.274       .  A
C262        C391   1.457       .  S
C266        C295   1.547       .  S
In269       O271   2.296       .  S
In269       O272   2.229       .  S
In269       O280   2.169       .  S
In269       O274   2.226       .  S
In269       O276   2.220       .  S
In269       O277   2.234       .  S
In269       O278   2.292       .  S
In269       O281   2.162       .  S
C270        O276   1.262       .  A
C270        O278   1.277       .  A
O271        C279   1.265       .  A
O272        C279   1.276       .  A
C273        O280   1.268       .  A
C273        O274   1.261       .  A
C273        C388   1.450   1_556  S
C275        O277   1.272       .  A
C275        O281   1.268       .  A
C275        C368   1.458       .  S
In282       O284   2.300       .  S
In282       O285   2.229       .  S
In282       O293   2.158       .  S
In282       O287   2.202       .  S
In282       O289   2.210       .  S
In282       O290   2.251       .  S
In282       O291   2.272       .  S
In282       O294   2.201       .  S
C283        O289   1.281       .  A
C283        O291   1.270       .  A
O284        C292   1.273   1_554  A
O285        C292   1.278   1_554  A
C286        O293   1.281       .  A
C286        O287   1.266       .  A
C286        C371   1.454   1_554  S
C288        O290   1.271       .  A
C288        O294   1.275       .  A
C288        C381   1.477       .  S
C295        C299   1.554       .  S
C295        C511   1.595       .  S
C295        C781   1.569       .  S
C296        C312   1.560       .  S
C296        C411   1.577       .  S
C296        C501   1.587       .  S
C297        C325   1.566       .  S
C297        C401   1.589       .  S
C297        C771   1.591       .  S
In298       O300   2.086       .  S
In298       O301   2.225       .  S
In298       O309   2.157       .  S
In298       O303   2.232       .  S
In298       O305   2.253       .  S
In298       O306   2.286       .  S
In298       O307   2.271       .  S
In298       O310   2.281       .  S
C299        O305   1.282       .  A
C299        O307   1.260       .  A
O300        C308   1.270       .  A
O301        C308   1.270       .  A
C302        O309   1.263       .  A
C302        O303   1.267       .  A
C302        C348   1.450       .  S
C304        O306   1.262       .  A
C304        O310   1.283       .  A
C308        C358   1.436       .  S
In311       O313   2.112       .  S
In311       O314   2.213       .  S
In311       O322   2.129       .  S
In311       O316   2.223       .  S
In311       O318   2.261       .  S
In311       O319   2.307       .  S
In311       O320   2.243       .  S
In311       O323   2.216       .  S
C312        O318   1.270       .  A
C312        O320   1.276       .  A
O313        C321   1.275       .  A
O314        C321   1.272       .  A
C315        O322   1.274   1_455  A
C315        O316   1.271   1_455  A
C315        C341   1.454       .  S
C317        O319   1.269   1_455  A
C317        O323   1.284   1_455  A
C321        C351   1.445       .  S
In324       O326   2.169       .  S
In324       O327   2.248       .  S
In324       O335   2.156       .  S
In324       O329   2.221       .  S
In324       O331   2.267       .  S
In324       O332   2.299       .  S
In324       O333   2.326       .  S
In324       O336   2.329       .  S
C325        O331   1.262       .  A
C325        O333   1.279       .  A
O326        C334   1.262       .  A
O327        C334   1.268       .  A
C328        O335   1.264       .  A
C328        O329   1.268       .  A
C328        C361   1.447   1_455  S
C330        O332   1.263       .  A
C330        O336   1.276       .  A
C334        C338   1.458       .  S
C337        C338   1.406       .  A
C337        C342   1.385       .  A
C337        F344   1.358       .  S
C338        C339   1.400       .  A
C339        C340   1.403       .  A
C339        F346   1.355       .  S
C340        C341   1.408       .  A
C340        F345   1.356       .  S
C341        C342   1.394       .  A
C342        F343   1.359   1_455  S
C347        C348   1.403       .  A
C347        C352   1.377       .  A
C347        F354   1.357       .  S
C348        C349   1.398       .  A
C349        C350   1.403       .  A
C349        F356   1.356       .  S
C350        C351   1.403       .  A
C350        F355   1.348       .  S
C351        C352   1.386       .  A
C352        F353   1.352       .  S
C357        C358   1.394       .  A
C357        C362   1.380   1_655  A
C357        F364   1.359       .  S
C358        C359   1.404       .  A
C359        C360   1.401       .  A
C359        F366   1.352       .  S
C360        C361   1.400       .  A
C360        F365   1.357       .  S
C361        C362   1.405   1_655  A
C362        F363   1.358       .  S
C367        C368   1.409       .  A
C367        C372   1.384       .  A
C367        F374   1.358   1_556  S
C368        C369   1.401       .  A
C369        C370   1.402       .  A
C369        F376   1.354       .  S
C370        C371   1.403       .  A
C370        F375   1.355       .  S
C371        C372   1.389       .  A
C372        F373   1.352   1_556  S
C377        C378   1.408       .  A
C377        C382   1.405       .  A
C377        F384   1.357       .  S
C378        C379   1.395       .  A
C379        C380   1.393       .  A
C379        F386   1.355       .  S
C380        C381   1.399       .  A
C380        F385   1.346       .  S
C381        C382   1.399       .  A
C382        F383   1.351       .  S
C387        C388   1.408       .  A
C387        C392   1.400       .  A
C387        F394   1.358   1_554  S
C388        C389   1.393       .  A
C389        C390   1.383       .  A
C389        F396   1.354       .  S
C390        C391   1.402       .  A
C390        F395   1.353       .  S
C391        C392   1.398       .  A
C392        F393   1.356       .  S
C397        C398   1.413       .  A
C397        C402   1.404       .  A
C397        F404   1.357       .  S
C398        C399   1.413       .  A
C399        C400   1.421       .  A
C399        F406   1.350       .  S
C400        C401   1.420   1_556  A
C400        F405   1.354       .  S
C401        C402   1.426   1_554  A
C402        F403   1.354   1_556  S
C407        C408   1.431       .  A
C407        C412   1.415       .  A
C407        F414   1.353       .  S
C408        C409   1.414       .  A
C409        C410   1.405       .  A
C409        F416   1.357       .  S
C410        C411   1.422       .  A
C410        F415   1.356       .  S
C411        C412   1.414       .  A
C412        F413   1.352       .  S
C417        C418   1.394   1_554  A
C417        C422   1.383   1_554  A
C417        F424   1.357       .  S
C418        C419   1.405       .  A
C419        C420   1.403       .  A
C419        F426   1.358       .  S
C420        C421   1.405       .  A
C420        F425   1.355       .  S
C421        C422   1.408       .  A
C422        F423   1.359   1_556  S
C427        C428   1.406       .  A
C427        C432   1.404   1_565  A
C427        F434   1.351       .  S
C428        C429   1.389       .  A
C429        C430   1.386       .  A
C429        F436   1.350       .  S
C430        C431   1.403   1_565  A
C430        F435   1.358   1_565  S
C431        C432   1.401       .  A
C432        F433   1.357       .  S
C437        C438   1.394       .  A
C437        C442   1.387       .  A
C437        F444   1.352       .  S
C438        C439   1.408   1_554  A
C439        C440   1.408   1_556  A
C439        F446   1.357       .  S
C440        C441   1.403       .  A
C440        F445   1.352   1_455  S
C441        C442   1.405       .  A
C442        F443   1.352       .  S
C447        C448   1.414       .  A
C447        C452   1.397       .  A
C447        F454   1.351       .  S
C448        C449   1.408       .  A
C449        C450   1.433       .  A
C449        F456   1.350       .  S
C450        C451   1.421       .  A
C450        F455   1.353       .  S
C451        C452   1.420       .  A
C452        F453   1.352       .  S
C457        C458   1.416       .  A
C457        C462   1.398       .  A
C457        F464   1.358       .  S
C458        C459   1.416       .  A
C459        C460   1.432       .  A
C459        F466   1.353       .  S
C460        C461   1.429       .  A
C460        F465   1.356       .  S
C461        C462   1.420       .  A
C462        F463   1.353       .  S
C467        C468   1.405       .  A
C467        C472   1.402       .  A
C467        F474   1.355       .  S
C468        C469   1.393       .  A
C469        C470   1.389       .  A
C469        F476   1.352   1_455  S
C470        C471   1.408       .  A
C470        F475   1.359   1_455  S
C471        C472   1.402       .  A
C472        F473   1.356       .  S
C477        C478   1.403   1_445  A
C477        C482   1.403   1_455  A
C477        F484   1.352       .  S
C478        C479   1.392       .  A
C479        C480   1.382       .  A
C479        F486   1.353       .  S
C480        C481   1.402   1_565  A
C480        F485   1.348       .  S
C481        C482   1.399       .  A
C482        F483   1.356       .  S
C487        C488   1.393       .  A
C487        C492   1.383       .  A
C487        F494   1.358       .  S
C488        C489   1.408       .  A
C489        C490   1.405       .  A
C489        F496   1.355       .  S
C490        C491   1.402       .  A
C490        F495   1.355   1_556  S
C491        C492   1.406       .  A
C492        F493   1.352       .  S
C497        C498   1.426   1_545  A
C497        C502   1.426   1_545  A
C497        F504   1.357       .  S
C498        C499   1.421       .  A
C499        C500   1.402       .  A
C499        F506   1.352       .  S
C500        C501   1.416       .  A
C500        F505   1.357       .  S
C501        C502   1.422       .  A
C502        F503   1.353   1_565  S
C507        C508   1.436   1_554  A
C507        C512   1.409       .  A
C507        F514   1.359       .  S
C508        C509   1.409       .  A
C509        C510   1.415   1_556  A
C509        F516   1.353       .  S
C510        C511   1.437       .  A
C510        F515   1.351       .  S
C511        C512   1.413       .  A
C512        F513   1.357       .  S
C517        C518   1.392       .  A
C517        C522   1.388       .  A
C517        F524   1.355       .  S
C518        C519   1.402   1_565  A
C519        C520   1.398       .  A
C519        F526   1.351       .  S
C520        C521   1.395       .  A
C520        F525   1.355       .  S
C521        C522   1.404   1_545  A
C522        F523   1.350       .  S
C527        C528   1.397       .  A
C527        C532   1.402       .  A
C527        F534   1.355       .  S
C528        C529   1.403       .  A
C529        C530   1.385       .  A
C529        F536   1.349       .  S
C530        C531   1.390       .  A
C530        F535   1.350       .  S
C531        C532   1.403       .  A
C532        F533   1.350       .  S
C537        C538   1.393       .  A
C537        C542   1.393       .  A
C537        F544   1.356       .  S
C538        C539   1.399       .  A
C539        C540   1.390       .  A
C539        F546   1.349       .  S
C540        C541   1.392       .  A
C540        F545   1.356       .  S
C541        C542   1.401       .  A
C542        F543   1.346       .  S
C547        C548   1.419       .  A
C547        C552   1.432   1_565  A
C547        F554   1.352   1_565  S
C548        C549   1.414       .  A
C549        C550   1.400       .  A
C549        F556   1.356       .  S
C550        C551   1.423       .  A
C550        F555   1.352       .  S
C551        C552   1.428   1_565  A
C552        F553   1.356       .  S
C557        C558   1.425       .  A
C557        C562   1.410       .  A
C557        F564   1.358       .  S
C558        C559   1.417       .  A
C559        C560   1.420       .  A
C559        F566   1.352       .  S
C560        C561   1.430       .  A
C560        F565   1.353       .  S
C561        C562   1.424       .  A
C562        F563   1.357       .  S
C567        C568   1.418       .  A
C567        C572   1.398       .  A
C567        F574   1.357       .  S
C568        C569   1.430       .  A
C569        C570   1.419       .  A
C569        F576   1.352       .  S
C570        C571   1.415       .  A
C570        F575   1.353       .  S
C571        C572   1.420       .  A
C572        F573   1.355       .  S
C577        C578   1.433       .  A
C577        C582   1.407       .  A
C577        F584   1.357       .  S
C578        C579   1.414       .  A
C579        C580   1.410       .  A
C579        F586   1.354       .  S
C580        C581   1.432       .  A
C580        F585   1.357       .  S
C581        C582   1.413       .  A
C582        F583   1.356       .  S
C587        C588   1.402       .  A
C587        C592   1.396       .  A
C587        F594   1.353       .  S
C588        C589   1.397       .  A
C589        C590   1.385       .  A
C589        F596   1.355       .  S
C590        C591   1.403       .  A
C590        F595   1.359       .  S
C591        C592   1.399       .  A
C592        F593   1.354       .  S
C597        C598   1.403       .  A
C597        C602   1.392       .  A
C597        F604   1.358       .  S
C598        C599   1.392       .  A
C599        C600   1.385       .  A
C599        F606   1.357       .  S
C600        C601   1.404       .  A
C600        F605   1.350       .  S
C601        C602   1.393       .  A
C602        F603   1.346       .  S
C607        C608   1.401       .  A
C607        C612   1.386       .  A
C607        F614   1.345       .  S
C608        C609   1.401       .  A
C609        C610   1.406       .  A
C609        F616   1.353       .  S
C610        C611   1.402       .  A
C610        F615   1.349       .  S
C611        C612   1.394       .  A
C612        F613   1.357       .  S
C617        C618   1.405       .  A
C617        C622   1.427       .  A
C617        F624   1.346       .  S
C618        C619   1.422       .  A
C619        C620   1.415       .  A
C619        F626   1.357       .  S
C620        C621   1.420       .  A
C620        F625   1.356       .  S
C621        C622   1.427       .  A
C622        F623   1.349       .  S
C627        C628   1.422       .  A
C627        C632   1.411       .  A
C627        F634   1.352       .  S
C628        C629   1.414       .  A
C629        C630   1.406       .  A
C629        F636   1.358       .  S
C630        C631   1.422       .  A
C630        F635   1.357       .  S
C631        C632   1.415       .  A
C632        F633   1.350       .  S
C637        C638   1.434       .  A
C637        C642   1.417       .  A
C637        F644   1.351       .  S
C638        C639   1.416       .  A
C639        C640   1.402       .  A
C639        F646   1.355       .  S
C640        C641   1.420       .  A
C640        F645   1.358       .  S
C641        C642   1.412       .  A
C642        F643   1.353       .  S
C647        C648   1.428       .  A
C647        C652   1.399       .  A
C647        F654   1.358       .  S
C648        C649   1.419       .  A
C649        C650   1.414       .  A
C649        F656   1.353       .  S
C650        C651   1.431       .  A
C650        F655   1.354       .  S
C651        C652   1.418       .  A
C652        F653   1.356       .  S
C657        C658   1.394       .  A
C657        C662   1.377       .  A
C657        F664   1.359       .  S
C658        C659   1.406       .  A
C659        C660   1.405       .  A
C659        F666   1.353       .  S
C660        C661   1.400       .  A
C660        F665   1.355       .  S
C661        C662   1.402       .  A
C662        F663   1.350       .  S
C667        C668   1.395       .  A
C667        C672   1.398       .  A
C667        F674   1.355   1_556  S
C668        C669   1.401       .  A
C669        C670   1.388       .  A
C669        F676   1.351       .  S
C670        C671   1.394       .  A
C670        F675   1.356       .  S
C671        C672   1.407       .  A
C672        F673   1.357       .  S
C677        C678   1.399       .  A
C677        C682   1.402       .  A
C677        F684   1.357       .  S
C678        C679   1.404       .  A
C679        C680   1.388       .  A
C679        F686   1.357       .  S
C680        C681   1.395       .  A
C680        F685   1.357       .  S
C681        C682   1.408       .  A
C682        F683   1.355       .  S
C687        C688   1.421       .  A
C687        C692   1.421   1_655  A
C687        F694   1.357       .  S
C688        C689   1.418       .  A
C689        C690   1.396       .  A
C689        F696   1.356       .  S
C690        C691   1.419   1_655  A
C690        F695   1.358       .  S
C691        C692   1.421       .  A
C692        F693   1.348       .  S
C697        C698   1.429   1_455  A
C697        C702   1.422       .  A
C697        F704   1.354   1_455  S
C698        C699   1.412   1_655  A
C699        C700   1.426       .  A
C699        F706   1.345       .  S
C700        C701   1.412       .  A
C700        F705   1.344       .  S
C701        C702   1.420       .  A
C702        F703   1.356       .  S
C707        C708   1.424       .  A
C707        C712   1.409       .  A
C707        F714   1.357       .  S
C708        C709   1.413       .  A
C709        C710   1.415       .  A
C709        F716   1.352       .  S
C710        C711   1.429       .  A
C710        F715   1.352       .  S
C711        C712   1.416       .  A
C712        F713   1.358       .  S
C717        C718   1.416       .  A
C717        C722   1.395       .  A
C717        F724   1.359       .  S
C718        C719   1.419       .  A
C719        C720   1.427       .  A
C719        F726   1.353       .  S
C720        C721   1.427       .  A
C720        F725   1.358       .  S
C721        C722   1.419       .  A
C722        F723   1.356       .  S
C727        C728   1.409       .  A
C727        C732   1.384       .  A
C727        F734   1.359       .  S
C728        C729   1.403       .  A
C729        C730   1.399       .  A
C729        F736   1.356   1_545  S
C730        C731   1.402       .  A
C730        F735   1.357   1_545  S
C731        C732   1.398       .  A
C732        F733   1.357       .  S
C737        C738   1.393       .  A
C737        C742   1.388       .  A
C737        F744   1.357       .  S
C738        C739   1.407       .  A
C739        C740   1.403       .  A
C739        F746   1.358       .  S
C740        C741   1.398       .  A
C740        F745   1.352       .  S
C741        C742   1.403       .  A
C742        F743   1.347       .  S
C747        C748   1.399       .  A
C747        C752   1.404       .  A
C747        F754   1.351       .  S
C748        C749   1.401       .  A
C749        C750   1.392       .  A
C749        F756   1.347       .  S
C750        C751   1.397       .  A
C750        F755   1.356       .  S
C751        C752   1.407       .  A
C752        F753   1.357       .  S
C757        C758   1.410       .  A
C757        C762   1.421       .  A
C757        F764   1.345       .  S
C758        C759   1.422       .  A
C759        C760   1.405   1_554  A
C759        F766   1.358   1_655  S
C760        C761   1.418       .  A
C760        F765   1.358       .  S
C761        C762   1.421   1_556  A
C762        F763   1.354       .  S
C767        C768   1.412       .  A
C767        C772   1.384       .  A
C767        F774   1.354       .  S
C768        C769   1.420   1_655  A
C769        C770   1.436       .  A
C769        F776   1.355       .  S
C770        C771   1.416       .  A
C770        F775   1.352       .  S
C771        C772   1.426   1_455  A
C772        F773   1.351   1_554  S
C777        C778   1.422       .  A
C777        C782   1.417       .  A
C777        F784   1.357       .  S
C778        C779   1.418       .  A
C779        C780   1.394       .  A
C779        F786   1.357       .  S
C780        C781   1.422       .  A
C780        F785   1.359       .  S
C781        C782   1.417       .  A
C782        F783   1.352       .  S
C787        C788   1.410       .  A
C787        C792   1.423       .  A
C787        F794   1.347       .  S
C788        C789   1.417       .  A
C789        C790   1.403       .  A
C789        F796   1.356       .  S
C790        C791   1.418   1_556  A
C790        F795   1.356       .  S
C791        C792   1.418   1_554  A
C792        F793   1.354       .  S
C797        C798   1.414       .  A
C797        C802   1.423       .  A
C797        F804   1.356       .  S
C798        C799   1.436       .  A
C799        C800   1.422   1_655  A
C799        F806   1.355       .  S
C800        C801   1.416       .  A
C800        F805   1.356       .  S
C801        C802   1.439   1_455  A
C802        F803   1.354       .  S
C807        C808   1.412       .  A
C807        C812   1.430       .  A
C807        F814   1.353       .  S
C808        C809   1.410       .  A
C809        C810   1.398       .  A
C809        F816   1.354       .  S
C810        C811   1.423       .  A
C810        F815   1.347       .  S
C811        C812   1.425       .  A
C812        F813   1.355       .  S
