geometry optimzed in LAMMPS
_audit_creation_date              2020-11-30 
_audit_creation_method            'lammps2cif' 
_symmetry_space_group_name_H-M    'P1' 
_symmetry_Int_Tables_number       1 
_symmetry_cell_setting            triclinic 
loop_ 
_symmetry_equiv_pos_as_xyz 
  x,y,z 
_cell_length_a                    36.15941524 
_cell_length_b                    36.38040715267493 
_cell_length_c                    35.97748785609044 
_cell_angle_alpha                 90.04501216707595 
_cell_angle_beta                  90.22641033514434 
_cell_angle_gamma                 90.13073985472846 
loop_ 
_atom_site_label 
_atom_site_type_symbol 
_atom_site_fract_x 
_atom_site_fract_y 
_atom_site_fract_z 
_atom_site_charge 
C1          C  0.60831198  0.61989159  0.66189600     0.87200
C2          C  0.60051637  0.65975494  0.65093321    -0.53000
C3          C  0.60567389  0.66725956  0.61432064     0.10200
C4          C  0.61943862  0.63427253  0.59134693     0.21100
C5          C  0.58584365  0.59573892  0.63528756    -0.53700
C6          C  0.59134975  0.60295844  0.59862843     0.10300
C7          C  0.64853282  0.61352578  0.64838623    -0.53300
C8          C  0.65502871  0.62150471  0.61158807     0.10800
H9          H  0.59110161  0.68039406  0.67058543     0.15300
H10         H  0.62244567  0.64135228  0.56180798     0.01100
H11         H  0.56725980  0.57417760  0.64472299     0.15600
H12         H  0.67056049  0.60202663  0.66534780     0.15400
C13         C  0.93367043  0.10015772  0.65084616     0.87200
C14         C  0.89346738  0.09501197  0.63604705    -0.53000
C15         C  0.88892828  0.10194621  0.59896329     0.10200
C16         C  0.92510831  0.11249455  0.57935180     0.21100
C17         C  0.95629338  0.07471621  0.62564228    -0.53700
C18         C  0.95186835  0.08034145  0.58832963     0.10300
C19         C  0.94375110  0.13936051  0.63874048    -0.53300
C20         C  0.93995993  0.14577207  0.60155556     0.10800
H21         H  0.86992368  0.08642860  0.65231647     0.15300
H22         H  0.92145045  0.11853431  0.54935200     0.01100
H23         H  0.97525057  0.05437467  0.63670149     0.15600
H24         H  0.95301426  0.16042235  0.65809303     0.15400
C25         C  0.12097243  0.60790885  0.87382724     0.87200
C26         C  0.15849426  0.59791580  0.89054176    -0.53000
C27         C  0.16278431  0.60736315  0.92697424     0.10200
C28         C  0.12900164  0.62773725  0.94347976     0.21100
C29         C  0.09262545  0.59074374  0.90077162    -0.53700
C30         C  0.09580676  0.60181167  0.93690322     0.10300
C31         C  0.11599272  0.64951110  0.88085312    -0.53300
C32         C  0.12101753  0.66011269  0.91703250     0.10800
H33         H  0.17998586  0.58422914  0.87473721     0.15300
H34         H  0.13275630  0.63644051  0.97283460     0.01100
H35         H  0.07088955  0.57217924  0.89199366     0.15600
H36         H  0.10566800  0.66831527  0.85992103     0.15400
C37         C  0.36560850  0.42255365  0.41869943     0.87200
C38         C  0.37898481  0.38356473  0.43027941    -0.53000
C39         C  0.41649348  0.37806922  0.42776599     0.10200
C40         C  0.43723130  0.41261797  0.41409007     0.21100
C41         C  0.38859082  0.44790711  0.44398388    -0.53700
C42         C  0.42593193  0.44281189  0.44216511     0.10300
C43         C  0.38112495  0.42793412  0.37970296    -0.53300
C44         C  0.41830357  0.42330379  0.37717004     0.10800
H45         H  0.36096680  0.36213114  0.44074053     0.15300
H46         H  0.46729470  0.40885010  0.41043903     0.01100
H47         H  0.37626418  0.46840709  0.46195526     0.15600
H48         H  0.36415032  0.43587322  0.35605404     0.15400
C49         C  0.60050433  0.88063799  0.11195530     0.87200
C50         C  0.59041208  0.89231545  0.15202578    -0.53000
C51         C  0.59925810  0.92768012  0.16064080     0.10200
C52         C  0.61650462  0.94917515  0.12839087     0.21100
C53         C  0.57977534  0.90899660  0.08824614    -0.53700
C54         C  0.58857746  0.94463827  0.09622478     0.10300
C55         C  0.64159682  0.89068407  0.10826761    -0.53300
C56         C  0.65077096  0.92657750  0.11653929     0.10800
H57         H  0.57561988  0.87543110  0.17184155     0.15300
H58         H  0.62140756  0.97802410  0.13607053     0.01100
H59         H  0.55924178  0.90172234  0.06742156     0.15600
H60         H  0.66166446  0.87056669  0.09893842     0.15400
C61         C  0.92919439  0.37053870  0.11089427     0.87200
C62         C  0.88921582  0.38128861  0.10175654    -0.53000
C63         C  0.88122790  0.41731311  0.10846431     0.10200
C64         C  0.91455124  0.43998226  0.12281029     0.21100
C65         C  0.95105588  0.39758334  0.08614438    -0.53700
C66         C  0.94537397  0.43395966  0.09363944     0.10300
C67         C  0.93655126  0.38354082  0.15084857    -0.53300
C68         C  0.92852817  0.41958332  0.15750517     0.10800
H69         H  0.86904118  0.36221726  0.09025187     0.15300
H70         H  0.90694054  0.46881305  0.12815238     0.01100
H71         H  0.96771405  0.38919627  0.06284214     0.15600
H72         H  0.94654461  0.36520481  0.17248264     0.15400
C73         C  0.36172723  0.12581657  0.91896469     0.87200
C74         C  0.37726971  0.11595787  0.88052435    -0.53000
C75         C  0.41474083  0.11852804  0.87767761     0.10200
C76         C  0.43387356  0.13074999  0.91399992     0.21100
C77         C  0.38325589  0.10190161  0.94706082    -0.53700
C78         C  0.42081533  0.10265841  0.94360815     0.10300
C79         C  0.37712003  0.16431305  0.92765998    -0.53300
C80         C  0.41476522  0.16701617  0.92556089     0.10800
H81         H  0.35988432  0.10744372  0.85736108     0.15300
H82         H  0.46428448  0.13323681  0.91095219     0.01100
H83         H  0.36951352  0.08663939  0.96894492     0.15600
H84         H  0.36071617  0.18720258  0.93698135     0.15400
C85         C  0.12512389  0.86143687  0.41623082     0.87200
C86         C  0.16539623  0.86952889  0.42895815    -0.53000
C87         C  0.17768842  0.90420255  0.42095190     0.10200
C88         C  0.14853776  0.92811679  0.40114811     0.21100
C89         C  0.10335383  0.89216710  0.43554594    -0.53700
C90         C  0.11438612  0.92684839  0.42668969     0.10300
C91         C  0.12445019  0.87124488  0.37464624    -0.53300
C92         C  0.13703270  0.90585493  0.36622005     0.10800
H93         H  0.18222311  0.85072714  0.44512270     0.15300
H94         H  0.15838876  0.95647229  0.39547354     0.01100
H95         H  0.08114916  0.88718421  0.45504310     0.15600
H96         H  0.11285790  0.85279985  0.35393096     0.15400
Zn97       Zn  0.03670447  0.99359511  0.97386548     1.49700
Zn98       Zn  0.04343161  0.04293335  0.04826561     1.49400
Zn99       Zn  0.96514380  0.03427985  0.00526712     1.49100
Zn100      Zn  0.99953716  0.96595838  0.05021947     1.49500
O101        O  0.01117799  0.00918811  0.01947212    -1.83400
O102        O  0.08656453  0.01873660  0.96987998    -0.74000
O103        O  0.01733239  0.09125285  0.05832509    -0.73800
O104        O  0.96098091  0.03972855  0.94884097    -0.73400
O105        O  0.09010011  0.05506102  0.01929694    -0.74000
O106        O  0.00913375  0.00893285  0.92703389    -0.73600
O107        O  0.96433578  0.08554469  0.02760016    -0.74200
O108        O  0.94414694  0.96243073  0.05983249    -0.73600
O109        O  0.05795767  0.02103692  0.09848675    -0.74400
O110        O  0.92002702  0.00733599  0.02553664    -0.73800
O111        O  0.02506858  0.96948397  0.10037088    -0.74200
O112        O  0.01726163  0.91871002  0.02531117    -0.74100
O113        O  0.04340863  0.93828023  0.97303883    -0.73900
C114        C  0.10339852  0.04328881  0.98872788     0.77900
C115        C  0.98640139  0.10441919  0.04770807     0.78400
C116        C  0.98044051  0.02849720  0.92160691     0.77300
C117        C  0.91628534  0.98045777  0.04798709     0.77700
C118        C  0.04738058  0.99215461  0.11555837     0.78800
C119        C  0.03410648  0.91230479  0.99487553     0.77900
Zn120      Zn  0.56915266  0.00044867  0.50338522     1.49700
Zn121      Zn  0.49341824  0.04059365  0.48043452     1.49400
Zn122      Zn  0.49702707  0.99451683  0.55619092     1.49100
Zn123      Zn  0.54114731  0.07091418  0.54946454     1.49500
O124        O  0.52532533  0.02648753  0.52241904    -1.83400
O125        O  0.56702068  0.99563165  0.44702049    -0.74000
O126        O  0.44199162  0.01905363  0.48547812    -0.73800
O127        O  0.52141983  0.94465359  0.56060864    -0.73400
O128        O  0.51391754  0.02244110  0.43192520    -0.74000
O129        O  0.57035602  0.94826376  0.52356119    -0.73600
O130        O  0.44469772  0.98529518  0.53681953    -0.74200
O131        O  0.52240445  0.07109385  0.60266006    -0.73600
O132        O  0.48901720  0.09562943  0.47599446    -0.74400
O133        O  0.49276407  0.01777952  0.60743481    -0.73800
O134        O  0.52190940  0.11663280  0.52394216    -0.74200
O135        O  0.59671623  0.07506636  0.55128053    -0.74100
O136        O  0.61683641  0.02741213  0.51821205    -0.73900
C137        C  0.54319364  0.00547097  0.42278317     0.77900
C138        C  0.42691482  0.99735733  0.50870693     0.78400
C139        C  0.54956904  0.93001261  0.54538892     0.77300
C140        C  0.50336621  0.04824400  0.62147386     0.77700
C141        C  0.50167982  0.12207782  0.49541791     0.78800
C142        C  0.62296512  0.05625926  0.53755705     0.77900
Zn143      Zn  0.56452863  0.54684292  0.00725533     1.49700
Zn144      Zn  0.53902508  0.47359549  0.04797545     1.49400
Zn145      Zn  0.48953393  0.54746942  0.05465091     1.49100
Zn146      Zn  0.49289514  0.50371683  0.97766440     1.49500
O147        O  0.52138921  0.51782595  0.02200631    -1.83400
O148        O  0.61258216  0.52266145  0.02246429    -0.74000
O149        O  0.51862828  0.47212762  0.10037418    -0.73800
O150        O  0.51081297  0.59866384  0.06234068    -0.73400
O151        O  0.59536230  0.47198082  0.05151586    -0.74000
O152        O  0.56313068  0.59699269  0.03035785    -0.73600
O153        O  0.48468021  0.52277066  0.10476828    -0.74200
O154        O  0.44094723  0.52399858  0.97937978    -0.73600
O155        O  0.52147818  0.42765742  0.02105533    -0.74400
O156        O  0.43789785  0.55384052  0.03296812    -0.73800
O157        O  0.48896605  0.44849293  0.97298448    -0.74200
O158        O  0.51673057  0.52361075  0.93111844    -0.74100
O159        O  0.56552581  0.55468564  0.95202380    -0.73900
C160        C  0.62081809  0.49353289  0.04015125     0.77900
C161        C  0.49731296  0.49319149  0.11881691     0.78400
C162        C  0.54046005  0.61398074  0.05106907     0.77300
C163        C  0.42301269  0.54340597  0.00254292     0.77700
C164        C  0.50195679  0.42194939  0.99203517     0.78800
C165        C  0.54507563  0.54361039  0.92541218     0.77900
Zn166      Zn  0.03354690  0.52359295  0.47273220     1.49700
Zn167      Zn  0.96049381  0.48634559  0.50593955     1.49400
Zn168      Zn  0.03947553  0.47697509  0.54788940     1.49100
Zn169      Zn  0.99816291  0.55606344  0.54592257     1.49500
O170        O  0.00784238  0.51045149  0.51845428    -1.83400
O171        O  0.00527544  0.50733190  0.42795388    -0.74000
O172        O  0.96045743  0.43333588  0.52375423    -0.73800
O173        O  0.08871552  0.46663898  0.52136846    -0.73400
O174        O  0.95311166  0.48370443  0.45010486    -0.74000
O175        O  0.08249726  0.49879970  0.46947371    -0.73600
O176        O  0.01392047  0.42702072  0.55391479    -0.74200
O177        O  0.02230657  0.55422160  0.59656647    -0.73600
O178        O  0.91682010  0.51446569  0.52747081    -0.74400
O179        O  0.05059166  0.50007098  0.59865449    -0.73800
O180        O  0.94333446  0.56376380  0.55260931    -0.74200
O181        O  0.01803707  0.60112183  0.51924550    -0.74100
O182        O  0.04237879  0.57793861  0.46808064    -0.73900
C183        C  0.97388296  0.49235384  0.42298214     0.77900
C184        C  0.98352861  0.41360802  0.54167524     0.78400
C185        C  0.10091255  0.47690994  0.48975480     0.77300
C186        C  0.04236915  0.53083552  0.61360303     0.77700
C187        C  0.91452805  0.54539445  0.54408242     0.78800
C188        C  0.03472943  0.60542495  0.48841052     0.77900
C189        C  0.27823981  0.93661561  0.42797944    -0.11100
C190        C  0.28158843  0.94354578  0.46621405     0.11400
C191        C  0.25029007  0.93884381  0.48937073    -0.02900
C192        C  0.21690927  0.92604957  0.47342922    -0.05700
C193        C  0.21376191  0.91856479  0.43524363    -0.16500
C194        C  0.24489003  0.92389278  0.41206237     0.02500
C195        C  0.31821308  0.95640122  0.48067299     0.12400
C196        C  0.25208470  0.94753912  0.53061390     0.63000
H197        H  0.19278047  0.92189307  0.49067368     0.12400
C198        C  0.24325726  0.91502145  0.37095274     0.55200
H199        H  0.30230524  0.94097337  0.41069514     0.08200
C200        C  0.34809591  0.93191445  0.48686108    -0.05600
C201        C  0.38267575  0.94637825  0.49785847    -0.06300
C202        C  0.38854252  0.98435050  0.50163457    -0.15900
C203        C  0.35844335  0.00875696  0.49647094    -0.01500
C204        C  0.32372654  0.99427129  0.48589711    -0.09000
C205        C  0.34387661  0.89081634  0.48061866     0.65200
H206        H  0.40601724  0.92818397  0.50189971     0.10700
C207        C  0.36277819  0.04979496  0.50290336     0.63600
H208        H  0.30066728  0.01254256  0.48076383     0.08100
F209        F  0.23392151  0.87846064  0.36631228    -0.19400
F210        F  0.27689422  0.92098107  0.35367380    -0.15600
F211        F  0.21713700  0.93686623  0.35370588    -0.19100
F212        F  0.25933963  0.98452637  0.53564278    -0.22500
F213        F  0.27979121  0.92726316  0.54736617    -0.24000
F214        F  0.21912329  0.93943554  0.54831136    -0.18000
F215        F  0.32925717  0.06796016  0.50041966    -0.20400
F216        F  0.38623442  0.06469137  0.47666064    -0.21600
F217        F  0.37722709  0.05597533  0.53802877    -0.18800
F218        F  0.37535308  0.87176878  0.49107928    -0.18900
F219        F  0.33740588  0.88392012  0.44337519    -0.22700
F220        F  0.31459753  0.87738803  0.50115642    -0.24300
C221        C  0.06129466  0.77857619  0.44115179    -0.11100
C222        C  0.08711399  0.75081932  0.44733471     0.11400
C223        C  0.12470401  0.75738753  0.43910867    -0.02900
C224        C  0.13563108  0.79306600  0.42830539    -0.05700
C225        C  0.11010776  0.82224242  0.42419536    -0.16500
C226        C  0.07151109  0.81323950  0.42723953     0.02500
C227        C  0.07305974  0.71404828  0.45864374     0.12400
C228        C  0.15291720  0.72653271  0.44095874     0.63000
H229        H  0.16435673  0.79780216  0.42184846     0.12400
C230        C  0.03937933  0.83749334  0.41528111     0.55200
H231        H  0.03229672  0.77232341  0.44561973     0.08200
C232        C  0.06759047  0.70441899  0.49630015    -0.05600
C233        C  0.05490969  0.66876281  0.50470505    -0.06300
C234        C  0.04643326  0.64300541  0.47670275    -0.15900
C235        C  0.04926321  0.65388702  0.43879600    -0.01500
C236        C  0.06298270  0.68921068  0.43058862    -0.09000
C237        C  0.07444519  0.73194887  0.52734106     0.65200
H238        H  0.05177753  0.66064564  0.53347109     0.10700
C239        C  0.03702602  0.62913385  0.40693563     0.63600
H240        H  0.06615167  0.69784184  0.40195985     0.08100
F241        F  0.02305020  0.85288293  0.44630426    -0.19400
F242        F  0.01303669  0.81651684  0.39689352    -0.15600
F243        F  0.04965915  0.86476216  0.39100139    -0.19100
F244        F  0.14359059  0.69946797  0.41558188    -0.22500
F245        F  0.15360990  0.71138260  0.47615772    -0.24000
F246        F  0.18823931  0.73875055  0.43277933    -0.18000
F247        F  0.00210452  0.61515563  0.41389536    -0.20400
F248        F  0.06179746  0.60055386  0.40273860    -0.21600
F249        F  0.03534655  0.64801930  0.37356419    -0.18800
F250        F  0.06766216  0.71691361  0.56200284    -0.18900
F251        F  0.05134245  0.76184794  0.52278935    -0.22700
F252        F  0.11073357  0.74387350  0.52670203    -0.24300
C253        C  0.12476268  0.91739486  0.26094639    -0.11100
C254        C  0.10933473  0.95262798  0.25927211     0.11400
C255        C  0.10705811  0.97391310  0.29209793    -0.02900
C256        C  0.11958906  0.95862287  0.32582489    -0.05700
C257        C  0.13325621  0.92244548  0.32810038    -0.16500
C258        C  0.13810662  0.90235375  0.29443045     0.02500
C259        C  0.09402824  0.96548282  0.22303068     0.12400
C260        C  0.08960675  0.01185170  0.29191551     0.63000
H261        H  0.11603130  0.97414581  0.35118010     0.12400
C262        C  0.15768141  0.86559330  0.29155494     0.55200
H263        H  0.12655388  0.90141505  0.23555784     0.08200
C264        C  0.11667191  0.97940975  0.19421930    -0.05600
C265        C  0.10012475  0.98914473  0.16003610    -0.06300
C266        C  0.06207724  0.98423774  0.15349655    -0.15900
C267        C  0.03938515  0.97114614  0.18284519    -0.01500
C268        C  0.05590811  0.96184340  0.21704481    -0.09000
C269        C  0.15823565  0.98290071  0.19920755     0.65200
H270        H  0.11711765  0.99924601  0.13751396     0.10700
C271        C  0.99787074  0.96706959  0.17840286     0.63600
H272        H  0.03921955  0.95075930  0.23933804     0.08100
F273        F  0.18243690  0.86654169  0.26230654    -0.19400
F274        F  0.13193295  0.83821926  0.28471569    -0.15600
F275        F  0.17760843  0.85690683  0.32309769    -0.19100
F276        F  0.05229603  0.00882957  0.28397600    -0.22500
F277        F  0.10618737  0.03373776  0.26535723    -0.24000
F278        F  0.09335287  0.02926926  0.32596365    -0.18000
F279        F  0.99028366  0.93788938  0.15497514    -0.20400
F280        F  0.98310876  0.99904400  0.16384743    -0.21600
F281        F  0.98061402  0.96032042  0.21201813    -0.18800
F282        F  0.17468369  0.99986101  0.16904195    -0.18900
F283        F  0.17362200  0.94837181  0.20309291    -0.22700
F284        F  0.16624345  0.00350161  0.23052642    -0.24300
C285        C  0.50900544  0.31973861  0.96869873    -0.11100
C286        C  0.47220867  0.31162599  0.95926751     0.11400
C287        C  0.44532761  0.33991314  0.96013336    -0.02900
C288        C  0.45637848  0.37559817  0.97060715    -0.05700
C289        C  0.49311262  0.38369545  0.98053980    -0.16500
C290        C  0.52016104  0.35555329  0.97876848     0.02500
C291        C  0.46204751  0.27283256  0.95067184     0.12400
C292        C  0.40508186  0.33235354  0.95032844     0.63000
H293        H  0.43613988  0.39745969  0.97185096     0.12400
C294        C  0.56080116  0.36349753  0.98603725     0.55200
H295        H  0.52895575  0.29759083  0.96828647     0.08200
C296        C  0.46669447  0.25709446  0.91496980    -0.05600
C297        C  0.45238905  0.22155249  0.90817600    -0.06300
C298        C  0.43450993  0.20145563  0.93616937    -0.15900
C299        C  0.43335964  0.21588644  0.97289403    -0.01500
C300        C  0.44706146  0.25155673  0.97932929    -0.09000
C301        C  0.48630828  0.27797792  0.88428808     0.65200
H302        H  0.45390593  0.20967194  0.88060666     0.10700
C303        C  0.41852062  0.19376337  0.00548417     0.63600
H304        H  0.44525710  0.26370717  0.00675928     0.08100
F305        F  0.58286655  0.33375809  0.97708632    -0.19400
F306        F  0.56634211  0.37153595  0.02320080    -0.15600
F307        F  0.57210249  0.39302871  0.96464252    -0.19100
F308        F  0.39019449  0.30748525  0.97517031    -0.22500
F309        F  0.40257334  0.31800646  0.91482582    -0.24000
F310        F  0.38389365  0.36398663  0.95153419    -0.18000
F311        F  0.43583723  0.16006001  0.00693764    -0.20400
F312        F  0.38086214  0.18846862  0.00202309    -0.21600
F313        F  0.42493128  0.21129728  0.03907791    -0.18800
F314        F  0.48831752  0.25759453  0.85185984    -0.18900
F315        F  0.52200548  0.28633067  0.89536340    -0.22700
F316        F  0.46770787  0.31024652  0.87657670    -0.24300
C317        C  0.46382047  0.06786492  0.79898689    -0.11100
C318        C  0.46211468  0.09392425  0.77045315     0.11400
C319        C  0.44634627  0.12885325  0.77762200    -0.02900
C320        C  0.43314897  0.13660717  0.81368968    -0.05700
C321        C  0.43421355  0.11019437  0.84211919    -0.16500
C322        C  0.44974783  0.07520630  0.83462790     0.02500
C323        C  0.47384787  0.08227058  0.73256291     0.12400
C324        C  0.44217804  0.15714766  0.74690063     0.63000
H325        H  0.42047517  0.16290290  0.81963229     0.12400
C326        C  0.44943300  0.04495830  0.86338468     0.55200
H327        H  0.47510855  0.04106023  0.79256139     0.08200
C328        C  0.51118093  0.08344845  0.72089582    -0.05600
C329        C  0.51977587  0.07233209  0.68431591    -0.06300
C330        C  0.49262066  0.05798739  0.66017026    -0.15900
C331        C  0.45558348  0.05487739  0.67282395    -0.01500
C332        C  0.44685545  0.06752762  0.70874362    -0.09000
C333        C  0.54174993  0.09538572  0.74739070     0.65200
H334        H  0.54801107  0.07399715  0.67450734     0.10700
C335        C  0.42515937  0.03888194  0.64840484     0.63600
H336        H  0.41872869  0.06571735  0.71883700     0.08100
F337        F  0.46518447  0.01281853  0.85032267    -0.19400
F338        F  0.41329152  0.03735126  0.87282074    -0.15600
F339        F  0.46908707  0.05598384  0.89442247    -0.19100
F340        F  0.41886907  0.14364626  0.71954652    -0.22500
F341        F  0.47622104  0.16484916  0.73139846    -0.24000
F342        F  0.42744160  0.18975474  0.75997548    -0.18000
F343        F  0.43170296  0.00191441  0.64241262    -0.20400
F344        F  0.42409643  0.05709200  0.61467155    -0.21600
F345        F  0.39068468  0.04210652  0.66465676    -0.18800
F346        F  0.57602977  0.09531400  0.73040403    -0.18900
F347        F  0.54323077  0.07152996  0.77725888    -0.22700
F348        F  0.53505636  0.13048594  0.76038062    -0.24300
C349        C  0.25542608  0.13279945  0.93470175    -0.11100
C350        C  0.24722409  0.09559053  0.94056465     0.11400
C351        C  0.27416388  0.06879433  0.93240221    -0.02900
C352        C  0.30974612  0.08055308  0.92253498    -0.05700
C353        C  0.31979300  0.11806192  0.92115080    -0.16500
C354        C  0.29070960  0.14449449  0.92287729     0.02500
C355        C  0.20962556  0.08512763  0.95337008     0.12400
C356        C  0.26550789  0.02792979  0.93434185     0.63000
H357        H  0.33070740  0.06017395  0.91696106     0.12400
C358        C  0.29343093  0.18343998  0.90801039     0.55200
H359        H  0.23352663  0.15279381  0.93825897     0.08200
C360        C  0.20041531  0.08385865  0.99150065    -0.05600
C361        C  0.16547451  0.07011255  0.00178702    -0.06300
C362        C  0.13931987  0.05844510  0.97515601    -0.15900
C363        C  0.14773685  0.06267836  0.93671755    -0.01500
C364        C  0.18306416  0.07557962  0.92664652    -0.09000
C365        C  0.22752048  0.09695173  0.02106066     0.65200
H366        H  0.15854588  0.06787487  0.03094702     0.10700
C367        C  0.11957705  0.05486155  0.90621247     0.63600
H368        H  0.19058174  0.07782277  0.89761851     0.08100
F369        F  0.29852316  0.20779267  0.93713068    -0.19400
F370        F  0.26099351  0.19279721  0.88976061    -0.15600
F371        F  0.32153891  0.18709800  0.88232922    -0.19100
F372        F  0.23904254  0.01911627  0.90796429    -0.22500
F373        F  0.25233618  0.01890864  0.96917748    -0.24000
F374        F  0.29646139  0.00661439  0.92762212    -0.18000
F375        F  0.13155165  0.06731246  0.87192466    -0.20400
F376        F  0.08665148  0.07249754  0.91407350    -0.21600
F377        F  0.11349840  0.01743977  0.90333618    -0.18800
F378        F  0.21281308  0.09432698  0.05642837    -0.18900
F379        F  0.23657359  0.13336666  0.01480674    -0.22700
F380        F  0.25936545  0.07603992  0.01992881    -0.24300
C381        C  0.92290437  0.48752674  0.33043624    -0.11100
C382        C  0.94666002  0.46443517  0.31044613     0.11400
C383        C  0.97956608  0.45131731  0.32721456    -0.02900
C384        C  0.98670904  0.46041645  0.36445204    -0.05700
C385        C  0.96277658  0.48305075  0.38468995    -0.16500
C386        C  0.93082384  0.49769070  0.36741164     0.02500
C387        C  0.93754456  0.45551565  0.27132207     0.12400
C388        C  0.00754986  0.42879054  0.30552237     0.63000
H389        H  0.01152668  0.45041037  0.37801758     0.12400
C390        C  0.90663888  0.52547265  0.38721434     0.55200
H391        H  0.89850559  0.49804400  0.31653955     0.08200
C392        C  0.91562778  0.42477642  0.26171695    -0.05600
C393        C  0.91261301  0.41501174  0.22406126    -0.06300
C394        C  0.93036257  0.43518242  0.19587795    -0.15900
C395        C  0.95098571  0.46716622  0.20565916    -0.01500
C396        C  0.95373029  0.47687164  0.24344202    -0.09000
C397        C  0.89565982  0.40245476  0.29117049     0.65200
H398        H  0.89669474  0.39095075  0.21630829     0.10700
C399        C  0.97184531  0.49012287  0.17738578     0.63600
H400        H  0.96976703  0.50066331  0.25187334     0.08100
F401        F  0.89063236  0.50957614  0.41811247    -0.19400
F402        F  0.87859930  0.53839182  0.36443336    -0.15600
F403        F  0.92796904  0.55519258  0.39827024    -0.19100
F404        F  0.02205722  0.44986683  0.27712060    -0.22500
F405        F  0.99085641  0.39794154  0.29048694    -0.24000
F406        F  0.03659419  0.41723141  0.32778095    -0.18000
F407        F  0.94729831  0.50997925  0.15595092    -0.20400
F408        F  0.99300684  0.46769377  0.15506086    -0.21600
F409        F  0.99553176  0.51506006  0.19428799    -0.18800
F410        F  0.87701557  0.37271385  0.27596627    -0.18900
F411        F  0.87014817  0.42449895  0.30895822    -0.22700
F412        F  0.92056990  0.38919567  0.31710953    -0.24300
C413        C  0.78205678  0.45194892  0.11352743    -0.11100
C414        C  0.77272974  0.45322570  0.07567447     0.11400
C415        C  0.80015837  0.44627673  0.04861750    -0.02900
C416        C  0.83563134  0.43552706  0.06059084    -0.05700
C417        C  0.84461164  0.43291438  0.09848507    -0.16500
C418        C  0.81776331  0.44196437  0.12550740     0.02500
C419        C  0.73403478  0.46260361  0.06535444     0.12400
C420        C  0.79213110  0.45089374  0.00742011     0.63000
H421        H  0.85678023  0.42894363  0.04041890     0.12400
C422        C  0.82647378  0.44017603  0.16670667     0.55200
H423        H  0.76082426  0.45840825  0.13364303     0.08200
C424        C  0.70553755  0.43592103  0.06423813    -0.05600
C425        C  0.66934180  0.44713629  0.05508512    -0.06300
C426        C  0.66057084  0.48416991  0.04774788    -0.15900
C427        C  0.68955473  0.51088402  0.04939991    -0.01500
C428        C  0.72573288  0.49937567  0.05804923    -0.09000
C429        C  0.71331897  0.39588117  0.07331333     0.65200
H430        H  0.64742233  0.42684632  0.05396098     0.10700
C431        C  0.68260161  0.55164430  0.04410392     0.63600
H432        H  0.74809873  0.51917306  0.05969502     0.08100
F433        F  0.83788618  0.40513359  0.17595356    -0.19400
F434        F  0.79600016  0.44862520  0.18823300    -0.15600
F435        F  0.85413607  0.46506059  0.17525748    -0.19100
F436        F  0.78473580  0.48742591  0.99999238    -0.22500
F437        F  0.76189845  0.42990042  0.99706911    -0.24000
F438        F  0.82182420  0.44026060  0.98577984    -0.18000
F439        F  0.71388284  0.57263633  0.05101680    -0.20400
F440        F  0.65560932  0.56277208  0.06863897    -0.21600
F441        F  0.67153105  0.55854431  0.00794409    -0.18800
F442        F  0.68208956  0.37413937  0.06925926    -0.18900
F443        F  0.72543340  0.39292142  0.10967308    -0.22700
F444        F  0.74027834  0.38227162  0.04995210    -0.24300
C445        C  0.95113314  0.20354250  0.04700546    -0.11100
C446        C  0.96291301  0.21574745  0.08189704     0.11400
C447        C  0.98024035  0.19101591  0.10671629    -0.02900
C448        C  0.98738153  0.15489648  0.09450746    -0.05700
C449        C  0.97628478  0.14257693  0.05904529    -0.16500
C450        C  0.95729191  0.16733136  0.03505684     0.02500
C451        C  0.95627812  0.25479911  0.09137077     0.12400
C452        C  0.99006985  0.20254309  0.14614467     0.63000
H453        H  0.00119835  0.13573926  0.11289824     0.12400
C454        C  0.94514569  0.15647458  0.99627622     0.55200
H455        H  0.93724142  0.22301576  0.02899223     0.08200
C456        C  0.98093790  0.28288697  0.08066698    -0.05600
C457        C  0.97192245  0.31944220  0.08920526    -0.06300
C458        C  0.93817827  0.32936124  0.10631616    -0.15900
C459        C  0.91523303  0.30016932  0.12004625    -0.01500
C460        C  0.92406627  0.26371619  0.11058158    -0.09000
C461        C  0.01620736  0.27437532  0.05938406     0.65200
H462        H  0.99211307  0.34025462  0.08285333     0.10700
C463        C  0.88164431  0.30406810  0.14520515     0.63600
H464        H  0.90581445  0.24155408  0.11903429     0.08100
F465        F  0.93150321  0.18597225  0.97619869    -0.19400
F466        F  0.91750473  0.13022212  0.99820021    -0.15600
F467        F  0.97521291  0.14274675  0.97740249    -0.19100
F468        F  0.95805511  0.21056402  0.16536775    -0.22500
F469        F  0.01246725  0.23336865  0.14587255    -0.24000
F470        F  0.00857257  0.17502979  0.16510867    -0.18000
F471        F  0.85018462  0.29430999  0.12551655    -0.20400
F472        F  0.87667216  0.33860622  0.15987235    -0.21600
F473        F  0.88541064  0.28037499  0.17507311    -0.18800
F474        F  0.03737561  0.30556321  0.05336815    -0.18900
F475        F  0.00729327  0.25944699  0.02515788    -0.22700
F476        F  0.03765291  0.24957181  0.07889877    -0.24300
C477        C  0.46289057  0.03024175  0.00915585    -0.11100
C478        C  0.49629240  0.04716313  0.01855633     0.11400
C479        C  0.50552488  0.08146766  0.00281488    -0.02900
C480        C  0.47988133  0.09842600  0.97892503    -0.05700
C481        C  0.44634714  0.08134446  0.96853853    -0.16500
C482        C  0.43844039  0.04550939  0.98305309     0.02500
C483        C  0.52304966  0.02527715  0.04039965     0.12400
C484        C  0.54257068  0.09971263  0.01073655     0.63000
H485        H  0.48616169  0.12549502  0.96828473     0.12400
C486        C  0.40641330  0.02065389  0.97155860     0.55200
H487        H  0.45699621  0.00332976  0.02080436     0.08200
C488        C  0.52101840  0.02162567  0.07950549    -0.05600
C489        C  0.54510993  0.99678522  0.09729280    -0.06300
C490        C  0.57029291  0.97554823  0.07693071    -0.15900
C491        C  0.57355008  0.98092967  0.03804101    -0.01500
C492        C  0.54903420  0.00497532  0.02039595    -0.09000
C493        C  0.49236610  0.04239284  0.10192308     0.65200
H494        H  0.54294284  0.99213071  0.12694632     0.10700
C495        C  0.60217830  0.96235778  0.01374336     0.63600
H496        H  0.55000533  0.00784254  0.99039516     0.08100
F497        F  0.37987318  0.02086666  0.99913047    -0.19400
F498        F  0.41887854  0.98494926  0.96708142    -0.15600
F499        F  0.39036487  0.03038484  0.93835658    -0.19100
F500        F  0.57074252  0.07868364  0.99602813    -0.22500
F501        F  0.54796525  0.10312173  0.04862289    -0.24000
F502        F  0.54476395  0.13445352  0.99521930    -0.18000
F503        F  0.58496254  0.93649387  0.99141934    -0.20400
F504        F  0.62981046  0.94551838  0.03395365    -0.21600
F505        F  0.61891816  0.98835945  0.99129396    -0.18800
F506        F  0.49736328  0.03744679  0.13976611    -0.18900
F507        F  0.45735054  0.03008343  0.09257684    -0.22700
F508        F  0.49470165  0.07960047  0.09457989    -0.24300
C509        C  0.60634983  0.96103595  0.26045624    -0.11100
C510        C  0.56892557  0.96447096  0.26969501     0.11400
C511        C  0.54145787  0.95945275  0.24194731    -0.02900
C512        C  0.55261600  0.94851323  0.20614896    -0.05700
C513        C  0.59008911  0.94367205  0.19736184    -0.16500
C514        C  0.61752731  0.95060279  0.22463599     0.02500
C515        C  0.56000601  0.97393532  0.30877958     0.12400
C516        C  0.50075580  0.96558937  0.25009985     0.63000
H517        H  0.53215513  0.94323594  0.18471262     0.12400
C518        C  0.65836465  0.94650807  0.21622988     0.55200
H519        H  0.62680259  0.96623447  0.28191438     0.08200
C520        C  0.56116440  0.94734489  0.33752200    -0.05600
C521        C  0.55579074  0.95891278  0.37444868    -0.06300
C522        C  0.54902032  0.99587785  0.38323215    -0.15900
C523        C  0.54782070  0.02244679  0.35439629    -0.01500
C524        C  0.55370174  0.01091128  0.31754538    -0.09000
C525        C  0.56834194  0.90701905  0.32922580     0.65200
H526        H  0.55668571  0.93908569  0.39687888     0.10700
C527        C  0.54168342  0.06294215  0.36251317     0.63600
H528        H  0.55384269  0.03076758  0.29514029     0.08100
F529        F  0.68005832  0.95136910  0.24764964    -0.19400
F530        F  0.66872129  0.97263916  0.19051024    -0.15600
F531        F  0.66536905  0.91182471  0.20222887    -0.19100
F532        F  0.49510817  0.00178855  0.26024113    -0.22500
F533        F  0.48948856  0.94293734  0.27874047    -0.24000
F534        F  0.47872710  0.95825360  0.21938681    -0.18000
F535        F  0.54596915  0.08437929  0.33102580    -0.20400
F536        F  0.56694880  0.07492696  0.38885319    -0.21600
F537        F  0.50622815  0.06826492  0.37564560    -0.18800
F538        F  0.56523186  0.88544850  0.36075703    -0.18900
F539        F  0.60365412  0.90272355  0.31535457    -0.22700
F540        F  0.54308388  0.89425440  0.30329120    -0.24300
C541        C  0.58979106  0.70228639  0.07952846    -0.11100
C542        C  0.56072322  0.72751925  0.07827184     0.11400
C543        C  0.52486522  0.71568579  0.06779321    -0.02900
C544        C  0.51918871  0.67816082  0.05984602    -0.05700
C545        C  0.54833974  0.65269723  0.06142138    -0.16500
C546        C  0.58419819  0.66487109  0.07201461     0.02500
C547        C  0.56954297  0.76628240  0.08751062     0.12400
C548        C  0.49303867  0.74263820  0.06460203     0.63000
H549        H  0.49204450  0.66853170  0.05146723     0.12400
C550        C  0.61633712  0.63858049  0.07655670     0.55200
H551        H  0.61714735  0.71232099  0.08666669     0.08200
C552        C  0.57597060  0.77782109  0.12440143    -0.05600
C553        C  0.58739324  0.81424843  0.13079097    -0.06300
C554        C  0.59221029  0.84003530  0.10172175    -0.15900
C555        C  0.58955871  0.82641842  0.06432729    -0.01500
C556        C  0.57649589  0.79045782  0.05828653    -0.09000
C557        C  0.57106386  0.75158057  0.15693861     0.65200
H558        H  0.59414743  0.82187592  0.15892579     0.10700
C559        C  0.60077832  0.84701900  0.02938118     0.63600
H560        H  0.57329412  0.78032376  0.03008241     0.08100
F561        F  0.64637960  0.65511066  0.09381504    -0.19400
F562        F  0.62762780  0.62642666  0.04202339    -0.15600
F563        F  0.60559920  0.60905930  0.09823498    -0.19100
F564        F  0.50053119  0.76812490  0.03715278    -0.22500
F565        F  0.48822952  0.76074559  0.09802116    -0.24000
F566        F  0.46014947  0.72517638  0.05554541    -0.18000
F567        F  0.61981250  0.82370344  0.00580701    -0.20400
F568        F  0.62394710  0.87614791  0.03629812    -0.21600
F569        F  0.56944221  0.85927758  0.01111033    -0.18800
F570        F  0.57495220  0.76925670  0.19081786    -0.18900
F571        F  0.59726800  0.72403984  0.15533815    -0.22700
F572        F  0.53618114  0.73596791  0.15570137    -0.24300
C573        C  0.74071065  0.97877668  0.09189802    -0.11100
C574        C  0.76646637  0.95059225  0.09687619     0.11400
C575        C  0.75544617  0.91780855  0.11463447    -0.02900
C576        C  0.71787418  0.91301955  0.12331933    -0.05700
C577        C  0.69064861  0.93947502  0.11447848    -0.16500
C578        C  0.70299139  0.97449171  0.10103187     0.02500
C579        C  0.80498576  0.95680289  0.08373855     0.12400
C580        C  0.78310304  0.88770421  0.12374684     0.63000
H581        H  0.70933917  0.88775677  0.13663731     0.12400
C582        C  0.67839367  0.00816188  0.09728935     0.55200
H583        H  0.75079071  0.00444133  0.08052087     0.08200
C584        C  0.81468241  0.95376220  0.04571292    -0.05600
C585        C  0.85138201  0.96153477  0.03503903    -0.06300
C586        C  0.87864221  0.97082849  0.06131863    -0.15900
C587        C  0.86896930  0.97295415  0.09944786    -0.01500
C588        C  0.83199186  0.96682339  0.10984645    -0.09000
C589        C  0.78632532  0.94230924  0.01665462     0.65200
H590        H  0.85916802  0.96025067  0.00602949     0.10700
C591        C  0.89760505  0.98138081  0.12910220     0.63600
H592        H  0.82384049  0.96939442  0.13865974     0.08100
F593        F  0.69639902  0.03713041  0.08010647    -0.19400
F594        F  0.66814424  0.02027874  0.13213809    -0.15600
F595        F  0.64758390  0.00044565  0.07622036    -0.19100
F596        F  0.80879893  0.90062387  0.14913951    -0.22500
F597        F  0.80116272  0.87673537  0.09182490    -0.24000
F598        F  0.76617690  0.85710182  0.13903891    -0.18000
F599        F  0.88186042  0.98575564  0.16384289    -0.20400
F600        F  0.91637048  0.01340347  0.12046198    -0.21600
F601        F  0.92222887  0.95251450  0.13107507    -0.18800
F602        F  0.80215491  0.93788273  0.98197230    -0.18900
F603        F  0.75910562  0.96877244  0.01377330    -0.22700
F604        F  0.77028623  0.90923165  0.02664266    -0.24300
C605        C  0.47687122  0.29956162  0.46703980    -0.11100
C606        C  0.45922904  0.26892527  0.45147147     0.11400
C607        C  0.42802392  0.27400162  0.42827798    -0.02900
C608        C  0.41663309  0.31009542  0.41989468    -0.05700
C609        C  0.43379700  0.34123118  0.43581312    -0.16500
C610        C  0.46420596  0.33570084  0.46065245     0.02500
C611        C  0.47201931  0.23167954  0.46271689     0.12400
C612        C  0.40576798  0.24133637  0.41406846     0.63000
H613        H  0.39318612  0.31427324  0.40158120     0.12400
C614        C  0.48156120  0.36663995  0.48313356     0.55200
H615        H  0.50008487  0.29464344  0.48547796     0.08200
C616        C  0.49924283  0.21208983  0.44258719    -0.05600
C617        C  0.50807651  0.17600480  0.45379908    -0.06300
C618        C  0.49166240  0.16002052  0.48516986    -0.15900
C619        C  0.46551455  0.18007624  0.50602405    -0.01500
C620        C  0.45608523  0.21576687  0.49438984    -0.09000
C621        C  0.51979232  0.22975822  0.41044340     0.65200
H622        H  0.52839138  0.16019801  0.43860834     0.10700
C623        C  0.44688482  0.16311239  0.53968036     0.63600
H624        H  0.43572915  0.23146084  0.50963393     0.08100
F625        F  0.50159454  0.38980493  0.46053999    -0.19400
F626        F  0.50548861  0.35358429  0.51020150    -0.15600
F627        F  0.45425713  0.38604242  0.50099636    -0.19100
F628        F  0.39061899  0.22265825  0.44382363    -0.22500
F629        F  0.42812971  0.21756278  0.39441994    -0.24000
F630        F  0.37718213  0.25212877  0.39086515    -0.18000
F631        F  0.42159593  0.18678832  0.55563393    -0.20400
F632        F  0.47311211  0.15442328  0.56632240    -0.21600
F633        F  0.42836651  0.13142627  0.52914029    -0.18800
F634        F  0.54343737  0.20520472  0.39327155    -0.18900
F635        F  0.54055688  0.25898371  0.42359572    -0.22700
F636        F  0.49524974  0.24253473  0.38394650    -0.24300
C637        C  0.17986650  0.44777273  0.42604819    -0.11100
C638        C  0.20945692  0.44601326  0.45120975     0.11400
C639        C  0.20291328  0.45190461  0.48956862    -0.02900
C640        C  0.16688040  0.46086971  0.50133658    -0.05700
C641        C  0.13738084  0.46380304  0.47600063    -0.16500
C642        C  0.14360413  0.45543285  0.43786239     0.02500
C643        C  0.24745354  0.43961306  0.43670678     0.12400
C644        C  0.23407701  0.44892049  0.51782911     0.63000
H645        H  0.16170675  0.46671665  0.53036766     0.12400
C646        C  0.11212892  0.45329623  0.40973982     0.55200
H647        H  0.18548823  0.44349287  0.39682642     0.08200
C648        C  0.26079281  0.40431217  0.42755846    -0.05600
C649        C  0.29875712  0.40012153  0.41995777    -0.06300
C650        C  0.32362684  0.43015954  0.42020348    -0.15900
C651        C  0.30795121  0.46634124  0.42176688    -0.01500
C652        C  0.27063225  0.47003765  0.43201386    -0.09000
C653        C  0.23505731  0.37130959  0.42587145     0.65200
H654        H  0.30889191  0.37306910  0.41327374     0.10700
C655        C  0.32776139  0.50235090  0.41300681     0.63600
H656        H  0.25922030  0.49726923  0.43630090     0.08100
F657        F  0.12311565  0.43641208  0.37710623    -0.19400
F658        F  0.09987391  0.48820092  0.40096082    -0.15600
F659        F  0.08317876  0.43294178  0.42420433    -0.19100
F660        F  0.26058389  0.47547239  0.51098105    -0.22500
F661        F  0.25018776  0.41456335  0.51546605    -0.24000
F662        F  0.22157699  0.45368433  0.55381925    -0.18000
F663        F  0.30637984  0.52253686  0.38843910    -0.20400
F664        F  0.36186543  0.49816745  0.39663469    -0.21600
F665        F  0.33198620  0.52250251  0.44537568    -0.18800
F666        F  0.25366836  0.33938311  0.41665132    -0.18900
F667        F  0.20811942  0.37706134  0.39914552    -0.22700
F668        F  0.21834499  0.36611887  0.45994976    -0.24300
C669        C  0.44423803  0.47616581  0.20889214    -0.11100
C670        C  0.47211271  0.46133871  0.23152417     0.11400
C671        C  0.50784612  0.45571875  0.21675461    -0.02900
C672        C  0.51495871  0.46689554  0.17998071    -0.05700
C673        C  0.48741469  0.48292501  0.15755614    -0.16500
C674        C  0.45115343  0.48719286  0.17204363     0.02500
C675        C  0.46251086  0.45142222  0.27043776     0.12400
C676        C  0.53802725  0.43733442  0.23952527     0.63000
H677        H  0.54227207  0.46312486  0.16836875     0.12400
C678        C  0.41951329  0.50221712  0.14863123     0.55200
H679        H  0.41689386  0.47932508  0.22063830     0.08200
C680        C  0.46044969  0.47823490  0.29897984    -0.05600
C681        C  0.44810328  0.46741123  0.33443267    -0.06300
C682        C  0.43776868  0.43097552  0.34184017    -0.15900
C683        C  0.44086047  0.40404061  0.31370307    -0.01500
C684        C  0.45305532  0.41479642  0.27820970    -0.09000
C685        C  0.47058530  0.51816468  0.29176297     0.65200
H686        H  0.44500122  0.48760339  0.35634236     0.10700
C687        C  0.43092837  0.36424983  0.32132715     0.63600
H688        H  0.45453131  0.39483694  0.25592126     0.08100
F689        F  0.42534642  0.53907799  0.14132715    -0.19400
F690        F  0.38584044  0.49897487  0.16653358    -0.15600
F691        F  0.41704364  0.48301820  0.11549031    -0.19100
F692        F  0.52790721  0.40148453  0.24720157    -0.22500
F693        F  0.54340018  0.45596728  0.27260460    -0.24000
F694        F  0.57139638  0.43662029  0.22081309    -0.18000
F695        F  0.39419125  0.36153384  0.33152872    -0.20400
F696        F  0.45293637  0.35108784  0.34983840    -0.21600
F697        F  0.43631131  0.34221212  0.29045029    -0.18800
F698        F  0.46744076  0.53944793  0.32350186    -0.18900
F699        F  0.44744260  0.53281059  0.26496750    -0.22700
F700        F  0.50670660  0.52051672  0.27956517    -0.24300
C701        C  0.02099503  0.48869620  0.04336841    -0.11100
C702        C  0.00395062  0.52287358  0.03890343     0.11400
C703        C  0.96824664  0.52851888  0.05393057    -0.02900
C704        C  0.94971121  0.49841510  0.07006466    -0.05700
C705        C  0.96714260  0.46424641  0.07555469    -0.16500
C706        C  0.00485498  0.46046960  0.06430825     0.02500
C707        C  0.02477751  0.55135739  0.01786121     0.12400
C708        C  0.95029734  0.56623913  0.05452865     0.63000
H709        H  0.92126922  0.50174833  0.07847972     0.12400
C710        C  0.03029060  0.42888551  0.07522067     0.55200
H711        H  0.04844177  0.48484757  0.03197381     0.08200
C712        C  0.06114209  0.56264871  0.02792922    -0.05600
C713        C  0.08301354  0.58074623  0.00134442    -0.06300
C714        C  0.06903517  0.59009247  0.96617011    -0.15900
C715        C  0.03073588  0.58424511  0.95883138    -0.01500
C716        C  0.01030801  0.56250228  0.98353536    -0.09000
C717        C  0.07879875  0.55531269  0.06555632     0.65200
H718        H  0.11177065  0.58628451  0.00785344     0.10700
C719        C  0.00979035  0.60029815  0.92594313     0.63600
H720        H  0.98291883  0.55344801  0.97533810     0.08100
F721        F  0.06619354  0.44150617  0.07993287    -0.19400
F722        F  0.03046694  0.40269577  0.04734824    -0.15600
F723        F  0.02020678  0.41298897  0.10854638    -0.19100
F724        F  0.93884910  0.57613352  0.01929439    -0.22500
F725        F  0.97527002  0.59203909  0.06772309    -0.24000
F726        F  0.91969688  0.56687250  0.07755670    -0.18000
F727        F  0.00323243  0.57309865  0.89984643    -0.20400
F728        F  0.02840586  0.62917836  0.90946745    -0.21600
F729        F  0.97607768  0.61381025  0.93781834    -0.18800
F730        F  0.09233625  0.58797620  0.07994627    -0.18900
F731        F  0.10792568  0.53111714  0.06121114    -0.22700
F732        F  0.05438245  0.54091875  0.09120256    -0.24300
C733        C  0.24479915  0.55536860  0.96788798    -0.11100
C734        C  0.27004824  0.58414150  0.97372145     0.11400
C735        C  0.25861522  0.62090786  0.96764440    -0.02900
C736        C  0.22214729  0.62745216  0.95535469    -0.05700
C737        C  0.19761102  0.59861480  0.94739740    -0.16500
C738        C  0.20863296  0.56190667  0.95479089     0.02500
C739        C  0.30919679  0.57444632  0.98232328     0.12400
C740        C  0.28508831  0.65300059  0.97305858     0.63000
H741        H  0.21306737  0.65518725  0.95015783     0.12400
C742        C  0.18249888  0.52967919  0.94874358     0.55200
H743        H  0.25424220  0.52745528  0.97224649     0.08200
C744        C  0.32142960  0.56527952  0.01855346    -0.05600
C745        C  0.35885496  0.55570346  0.02395589    -0.06300
C746        C  0.38399585  0.55398158  0.99422388    -0.15900
C747        C  0.37144734  0.56293429  0.95780223    -0.01500
C748        C  0.33411570  0.57272402  0.95262593    -0.09000
C749        C  0.29488505  0.56489134  0.05115034     0.65200
H750        H  0.36862196  0.54861486  0.05152152     0.10700
C751        C  0.39717316  0.56304810  0.92445728     0.63600
H752        H  0.32382117  0.57902993  0.92504644     0.08100
F753        F  0.14921026  0.53643014  0.96616223    -0.19400
F754        F  0.19676406  0.49738642  0.96317579    -0.15600
F755        F  0.17628439  0.52436622  0.91121497    -0.19100
F756        F  0.31500009  0.64950113  0.94954107    -0.22500
F757        F  0.29762977  0.65382245  0.00936482    -0.24000
F758        F  0.26830898  0.68635592  0.96550202    -0.18000
F759        F  0.40713474  0.52741930  0.91567001    -0.20400
F760        F  0.42853902  0.58352149  0.93234265    -0.21600
F761        F  0.38054879  0.57829658  0.89336692    -0.18800
F762        F  0.31273102  0.55684673  0.08426581    -0.18900
F763        F  0.26788301  0.53853972  0.04532418    -0.22700
F764        F  0.27823402  0.59883020  0.05486438    -0.24300
C765        C  0.11087806  0.60584126  0.76652876    -0.11100
C766        C  0.09224491  0.57239951  0.76153523     0.11400
C767        C  0.08957998  0.54764777  0.79163986    -0.02900
C768        C  0.10203632  0.55916793  0.82684890    -0.05700
C769        C  0.11646590  0.59477859  0.83321748    -0.16500
C770        C  0.12536269  0.61637318  0.80136204     0.02500
C771        C  0.07899961  0.56248811  0.72365558     0.12400
C772        C  0.07341866  0.50932561  0.78663329     0.63000
H773        H  0.10028877  0.54014001  0.84981052     0.12400
C774        C  0.15234030  0.64844601  0.80132769     0.55200
H775        H  0.11556122  0.62318724  0.74249128     0.08200
C776        C  0.04368186  0.57284379  0.71039045    -0.05600
C777        C  0.03259378  0.56113291  0.67470044    -0.06300
C778        C  0.05596445  0.54021951  0.65168147    -0.15900
C779        C  0.09205989  0.53127710  0.66463715    -0.01500
C780        C  0.10276898  0.54254143  0.70058595    -0.09000
C781        C  0.01836082  0.59701281  0.73348182     0.65200
H782        H  0.00547175  0.56855753  0.66432409     0.10700
C783        C  0.11986425  0.51130063  0.64041572     0.63600
H784        H  0.12997348  0.53577417  0.71122944     0.08100
F785        F  0.13317835  0.68101563  0.79705177    -0.19400
F786        F  0.17648649  0.64474203  0.77179356    -0.15600
F787        F  0.17378038  0.65006649  0.83311537    -0.19100
F788        F  0.09400640  0.48991411  0.76100693    -0.22500
F789        F  0.03731390  0.51164404  0.77414162    -0.24000
F790        F  0.07345577  0.48961943  0.81954102    -0.18000
F791        F  0.15438522  0.50943394  0.65710626    -0.20400
F792        F  0.12382847  0.52964222  0.60698972    -0.21600
F793        F  0.10802611  0.47572591  0.63385477    -0.18800
F794        F  0.98470620  0.60289408  0.71601291    -0.18900
F795        F  0.03501932  0.63079245  0.73927399    -0.22700
F796        F  0.01150614  0.58082207  0.76750847    -0.24300
C797        C  0.11366061  0.76313795  0.93677000    -0.11100
C798        C  0.07988042  0.76459094  0.95575388     0.11400
C799        C  0.05946289  0.73184021  0.96141440    -0.02900
C800        C  0.07509304  0.69819898  0.95022729    -0.05700
C801        C  0.10860411  0.69671551  0.93068763    -0.16500
C802        C  0.12803900  0.72975926  0.92325611     0.02500
C803        C  0.06612327  0.80127456  0.96768146     0.12400
C804        C  0.02047735  0.73263368  0.97696529     0.63000
H805        H  0.06036105  0.67279657  0.95521608     0.12400
C806        C  0.16346541  0.72998896  0.90086618     0.55200
H807        H  0.12822674  0.78870855  0.93182513     0.08200
C808        C  0.07626287  0.81706990  0.00226254    -0.05600
C809        C  0.06398106  0.85289362  0.01070631    -0.06300
C810        C  0.04370634  0.87382814  0.98493648    -0.15900
C811        C  0.03382601  0.85800289  0.95020737    -0.01500
C812        C  0.04499656  0.82173843  0.94236014    -0.09000
C813        C  0.10124102  0.79670931  0.02934167     0.65200
H814        H  0.07145853  0.86548153  0.03697838     0.10700
C815        C  0.01139268  0.87916557  0.92160986     0.63600
H816        H  0.03818608  0.80929190  0.91583688     0.08100
F817        F  0.18851242  0.70569176  0.91601764    -0.19400
F818        F  0.17983785  0.76442384  0.90030316    -0.15600
F819        F  0.15592411  0.71984229  0.86464111    -0.19100
F820        F  0.99778269  0.75195960  0.95296486    -0.22500
F821        F  0.02005126  0.74951327  0.01134583    -0.24000
F822        F  0.00595179  0.69760605  0.98098050    -0.18000
F823        F  0.03228845  0.90779976  0.90757922    -0.20400
F824        F  0.97976983  0.89307822  0.93788344    -0.21600
F825        F  0.00067758  0.85708773  0.89209569    -0.18800
F826        F  0.10747705  0.81676393  0.06148035    -0.18900
F827        F  0.13504516  0.79002983  0.01286963    -0.22700
F828        F  0.08545252  0.76355994  0.03930379    -0.24300
C829        C  0.03765566  0.99258468  0.45328751    -0.11100
C830        C  0.05197766  0.00739607  0.48619284     0.11400
C831        C  0.08889747  0.99927951  0.49675840    -0.02900
C832        C  0.10996512  0.97564434  0.47407592    -0.05700
C833        C  0.09483025  0.95925890  0.44211962    -0.16500
C834        C  0.05836612  0.96883464  0.43084533     0.02500
C835        C  0.02580354  0.02692012  0.51113826     0.12400
C836        C  0.10532356  0.01417006  0.53263756     0.63000
H837        H  0.13755805  0.96764392  0.48258939     0.12400
C838        C  0.03902263  0.95424460  0.39639018     0.55200
H839        H  0.00918801  0.99845180  0.44578602     0.08200
C840        C  0.01441458  0.06361954  0.50522136    -0.05600
C841        C  0.98905600  0.07949757  0.53023233    -0.06300
C842        C  0.97374839  0.05946247  0.55998346    -0.15900
C843        C  0.98269396  0.02134886  0.56329844    -0.01500
C844        C  0.00943272  0.00641341  0.53950085    -0.09000
C845        C  0.02882945  0.08571326  0.47254394     0.65200
H846        H  0.98167828  0.10812155  0.52704609     0.10700
C847        C  0.96485814  0.99411596  0.58992113     0.63600
H848        H  0.01701767  0.97770695  0.54240788     0.08100
F849        F  0.02636811  0.98347457  0.37533218    -0.19400
F850        F  0.00910579  0.93296525  0.40690772    -0.15600
F851        F  0.06157671  0.93338468  0.37414382    -0.19100
F852        F  0.08619656  0.00028553  0.56272435    -0.22500
F853        F  0.10304760  0.05208461  0.53297425    -0.24000
F854        F  0.14214949  0.00454430  0.53669272    -0.18000
F855        F  0.95327338  0.96345346  0.57020725    -0.20400
F856        F  0.93433683  0.00756545  0.60814504    -0.21600
F857        F  0.99074584  0.98321439  0.61605193    -0.18800
F858        F  0.01689665  0.12182827  0.47364091    -0.18900
F859        F  0.01635070  0.07023412  0.43969498    -0.22700
F860        F  0.06705650  0.08584321  0.47269035    -0.24300
C861        C  0.98718301  0.23445850  0.57091009    -0.11100
C862        C  0.95670704  0.25798668  0.56761397     0.11400
C863        C  0.92053595  0.24343102  0.57136457    -0.02900
C864        C  0.91626993  0.20592119  0.58041551    -0.05700
C865        C  0.94689808  0.18276556  0.58546751    -0.16500
C866        C  0.98302225  0.19700195  0.57968291     0.02500
C867        C  0.96367030  0.29798496  0.56154697     0.12400
C868        C  0.88669391  0.26752538  0.56602994     0.63000
H869        H  0.88890000  0.19455519  0.58469511     0.12400
C870        C  0.01816994  0.17454951  0.58313903     0.55200
H871        H  0.01473053  0.24573772  0.56731052     0.08200
C872        C  0.97339229  0.32185108  0.59120691    -0.05600
C873        C  0.97955182  0.35940946  0.58360532    -0.06300
C874        C  0.97544101  0.37386731  0.54764345    -0.15900
C875        C  0.96574698  0.34984144  0.51793259    -0.01500
C876        C  0.96043701  0.31214549  0.52546489    -0.09000
C877        C  0.97679970  0.30767114  0.63078790     0.65200
H878        H  0.98730078  0.37797760  0.60586436     0.10700
C879        C  0.96152422  0.36366916  0.47829704     0.63600
H880        H  0.95326115  0.29332709  0.50322814     0.08100
F881        F  0.03806912  0.18659076  0.61372641    -0.19400
F882        F  0.03944433  0.17935961  0.55162921    -0.15600
F883        F  0.01168183  0.13742668  0.58690150    -0.19100
F884        F  0.88424563  0.27816793  0.52923002    -0.22500
F885        F  0.88918252  0.29853554  0.58815210    -0.24000
F886        F  0.85441795  0.24919522  0.57522789    -0.18000
F887        F  0.95730613  0.33506268  0.45320885    -0.20400
F888        F  0.99249613  0.38357795  0.46806486    -0.21600
F889        F  0.93059883  0.38581129  0.47571456    -0.18800
F890        F  0.98475040  0.33563618  0.65569241    -0.18900
F891        F  0.00485759  0.28202930  0.63301222    -0.22700
F892        F  0.94394836  0.29139995  0.64153396    -0.24300
C893        C  0.71558128  0.07487535  0.58431285    -0.11100
C894        C  0.73542428  0.09162551  0.55542679     0.11400
C895        C  0.71795180  0.09728518  0.52054402    -0.02900
C896        C  0.68106435  0.08538447  0.51569520    -0.05700
C897        C  0.66147084  0.06834733  0.54455870    -0.16500
C898        C  0.67862586  0.06349512  0.57961815     0.02500
C899        C  0.77551243  0.09905965  0.56178268     0.12400
C900        C  0.73828463  0.11538096  0.48852849     0.63000
H901        H  0.66726601  0.08901150  0.48918001     0.12400
C902        C  0.65814730  0.04544437  0.61154350     0.55200
H903        H  0.72965179  0.07012944  0.61049792     0.08200
C904        C  0.78845402  0.12806072  0.58475008    -0.05600
C905        C  0.82628687  0.12917042  0.59438799    -0.06300
C906        C  0.85135062  0.10258175  0.58155817    -0.15900
C907        C  0.83873550  0.07522251  0.55641324    -0.01500
C908        C  0.80083186  0.07368456  0.54745188    -0.09000
C909        C  0.76237883  0.15718221  0.59965863     0.65200
H910        H  0.83643035  0.15007707  0.61333717     0.10700
C911        C  0.86448226  0.04644559  0.54069153     0.63600
H912        H  0.79023141  0.05154220  0.53029408     0.08100
F913        F  0.68023150  0.04206185  0.64287283    -0.19400
F914        F  0.64657976  0.01067116  0.60105783    -0.15600
F915        F  0.62765122  0.06630302  0.62093198    -0.19100
F916        F  0.76632924  0.09270649  0.47631851    -0.22500
F917        F  0.75334413  0.14849988  0.49991716    -0.24000
F918        F  0.71493488  0.12229891  0.45877000    -0.18000
F919        F  0.84634060  0.02243356  0.51690409    -0.20400
F920        F  0.87927758  0.02618378  0.56938861    -0.21600
F921        F  0.89253064  0.06314310  0.52093300    -0.18800
F922        F  0.78131129  0.18489944  0.61810309    -0.18900
F923        F  0.73771421  0.14153916  0.62427849    -0.22700
F924        F  0.74289173  0.17299741  0.57069780    -0.24300
C925        C  0.98080235  0.07771060  0.74598790    -0.11100
C926        C  0.95027492  0.07065083  0.76848783     0.11400
C927        C  0.91444787  0.07712351  0.75437764    -0.02900
C928        C  0.91042898  0.08855796  0.71716434    -0.05700
C929        C  0.94087884  0.09305591  0.69286059    -0.16500
C930        C  0.97724647  0.08964853  0.70891390     0.02500
C931        C  0.95702385  0.05862929  0.80751983     0.12400
C932        C  0.88051342  0.07198886  0.77867734     0.63000
H933        H  0.88299620  0.09495922  0.70780964     0.12400
C934        C  0.01401723  0.09718521  0.68974943     0.55200
H935        H  0.00816645  0.07408199  0.75789529     0.08200
C936        C  0.96592594  0.02185538  0.81680015    -0.05600
C937        C  0.97240490  0.01278997  0.85444619    -0.06300
C938        C  0.97060432  0.03940052  0.88277596    -0.15900
C939        C  0.96282720  0.07643520  0.87295628    -0.01500
C940        C  0.95601993  0.08529170  0.83550470    -0.09000
C941        C  0.96910181  0.99260296  0.78687666     0.65200
H942        H  0.97936357  0.98483672  0.86202658     0.10700
C943        C  0.96375457  0.10693167  0.90153520     0.63600
H944        H  0.95024848  0.11341391  0.82754208     0.08100
F945        F  0.03238194  0.06426028  0.68463278    -0.19400
F946        F  0.03557784  0.11960004  0.71220256    -0.15600
F947        F  0.01114895  0.11456084  0.65605376    -0.19100
F948        F  0.88088435  0.09759024  0.80707857    -0.22500
F949        F  0.88038972  0.03707482  0.79383292    -0.24000
F950        F  0.84795160  0.07632355  0.75880259    -0.18000
F951        F  0.95992599  0.14134755  0.88559028    -0.20400
F952        F  0.99733934  0.10610845  0.92006664    -0.21600
F953        F  0.93507593  0.10217103  0.92634400    -0.18800
F954        F  0.97568141  0.95818153  0.80182249    -0.17300
F955        F  0.99804134  0.00110023  0.76337860    -0.22700
F956        F  0.93668757  0.99083744  0.76643007    -0.24300
C957        C  0.47026515  0.50157465  0.51855813    -0.11100
C958        C  0.50130683  0.51522276  0.50008205     0.11400
C959        C  0.50956459  0.50246844  0.46393001    -0.02900
C960        C  0.48421664  0.47873252  0.44612170    -0.05700
C961        C  0.45258051  0.46531764  0.46439529    -0.16500
C962        C  0.44665691  0.47542186  0.50227418     0.02500
C963        C  0.52677574  0.53921415  0.52159401     0.12400
C964        C  0.54550424  0.51294450  0.44490047     0.63000
H965        H  0.48901416  0.47052990  0.41762539     0.12400
C966        C  0.41772654  0.45893055  0.52810730     0.55200
H967        H  0.46546506  0.51022250  0.54700723     0.08200
C968        C  0.52250694  0.57785546  0.52356046    -0.05600
C969        C  0.54646674  0.59814983  0.54687905    -0.06300
C970        C  0.57272720  0.58064566  0.56953805    -0.15900
C971        C  0.57677011  0.54177913  0.56750561    -0.01500
C972        C  0.55349184  0.52189637  0.54358713    -0.09000
C973        C  0.49114092  0.59708498  0.50328967     0.65200
H974        H  0.54320727  0.62762991  0.54952115     0.10700
C975        C  0.60447127  0.51953627  0.59008584     0.63600
H976        H  0.55569094  0.49217469  0.54250342     0.08100
F977        F  0.39948584  0.42872438  0.51379546    -0.19400
F978        F  0.39194264  0.48553879  0.53687116    -0.15600
F979        F  0.43485405  0.44754707  0.56059641    -0.19100
F980        F  0.57505508  0.49967025  0.46532767    -0.22500
F981        F  0.54861620  0.55069178  0.44223673    -0.24000
F982        F  0.54766182  0.49842933  0.40939616    -0.18000
F983        F  0.58580642  0.50013848  0.61723661    -0.20400
F984        F  0.63147014  0.54072255  0.60689210    -0.21600
F985        F  0.62225783  0.49479390  0.56705154    -0.18800
F986        F  0.49261206  0.63483230  0.50802768    -0.18900
F987        F  0.45766011  0.58468277  0.51690247    -0.22700
F988        F  0.49268493  0.58978052  0.46565672    -0.24300
C989        C  0.61552550  0.76836251  0.59008567    -0.11100
C990        C  0.57891819  0.77736557  0.58108903     0.11400
C991        C  0.55160215  0.74937663  0.57975593    -0.02900
C992        C  0.56178566  0.71320806  0.58932803    -0.05700
C993        C  0.59825342  0.70446175  0.59932537    -0.16500
C994        C  0.62573138  0.73221676  0.59931390     0.02500
C995        C  0.57047581  0.81642137  0.57256370     0.12400
C996        C  0.51201270  0.75775243  0.56834303     0.63000
H997        H  0.54121976  0.69151306  0.58977996     0.12400
C998        C  0.66561002  0.72360454  0.60904130     0.55200
H999        H  0.63601392  0.79012940  0.59013554     0.08200
C1000       C  0.56235743  0.84227816  0.60078979    -0.05600
C1001       C  0.55524930  0.87895488  0.59057273    -0.06300
C1002       C  0.55789565  0.89081817  0.55350787    -0.15900
C1003       C  0.56684657  0.86492494  0.52534158    -0.01500
C1004       C  0.57271029  0.82799362  0.53550477    -0.09000
C1005       C  0.56313515  0.83166850  0.64163902     0.65200
H1006       H  0.54878214  0.89908641  0.61175494     0.10700
C1007       C  0.56956290  0.87581728  0.48467210     0.63600
H1008       H  0.57965956  0.80773796  0.51460039     0.08100
F1009       F  0.66775992  0.70889369  0.64441003    -0.19400
F1010       F  0.68776749  0.75466817  0.60806239    -0.15600
F1011       F  0.67936653  0.69863873  0.58370474    -0.19100
F1012       F  0.51137158  0.77089779  0.53231510    -0.22500
F1013       F  0.49705420  0.78395978  0.59165037    -0.24000
F1014       F  0.48974953  0.72677360  0.56985064    -0.18000
F1015       F  0.59960779  0.89881758  0.47961182    -0.20400
F1016       F  0.53760496  0.89366056  0.47367077    -0.21600
F1017       F  0.57415309  0.84555720  0.46178659    -0.18800
F1018       F  0.55028119  0.85976577  0.66408979    -0.18900
F1019       F  0.59908173  0.82381293  0.65209581    -0.22700
F1020       F  0.54132230  0.80108666  0.64791642    -0.24300
C1021       C  0.83146115  0.60897365  0.55613802    -0.11100
C1022       C  0.80584681  0.58503752  0.57240478     0.11400
C1023       C  0.81555354  0.54783742  0.57858151    -0.02900
C1024       C  0.85138867  0.53607417  0.56911232    -0.05700
C1025       C  0.87751189  0.56023729  0.55370732    -0.16500
C1026       C  0.86733997  0.59734726  0.54671946     0.02500
C1027       C  0.76818091  0.59912379  0.58056089     0.12400
C1028       C  0.78799083  0.52066671  0.59474445     0.63000
H1029       H  0.85937395  0.50776909  0.57375845     0.12400
C1030       C  0.89356405  0.62435915  0.52821161     0.55200
H1031       H  0.82292817  0.63700134  0.55079622     0.08200
C1032       C  0.75997738  0.61901972  0.61315927    -0.05600
C1033       C  0.72295102  0.62843377  0.62011432    -0.06300
C1034       C  0.69372578  0.61831513  0.59593909    -0.15900
C1035       C  0.70313778  0.60244781  0.56084613    -0.01500
C1036       C  0.74030072  0.59276456  0.55432187    -0.09000
C1037       C  0.79004885  0.62947928  0.64085432     0.65200
H1038       H  0.71635113  0.64294606  0.64549803     0.10700
C1039       C  0.67559110  0.59602361  0.52960097     0.63600
H1040       H  0.74817896  0.57958079  0.52855556     0.08100
F1041       F  0.92269943  0.63237339  0.55187131    -0.19400
F1042       F  0.87617910  0.65711579  0.51941245    -0.15600
F1043       F  0.90703257  0.60942131  0.49559523    -0.19100
F1044       F  0.75823897  0.51663327  0.57083494    -0.22500
F1045       F  0.77543691  0.53320037  0.62870033    -0.24000
F1046       F  0.80355849  0.48633941  0.60011440    -0.18000
F1047       F  0.66378630  0.62940514  0.51574016    -0.20400
F1048       F  0.64606382  0.57579095  0.54203911    -0.21600
F1049       F  0.69092221  0.57674357  0.50026925    -0.18800
F1050       F  0.77608138  0.64895426  0.67073513    -0.18900
F1051       F  0.81625825  0.65128582  0.62370955    -0.22700
F1052       F  0.80695384  0.59817229  0.65440772    -0.24300
C1053       C  0.55507892  0.60278918  0.75402220    -0.11100
C1054       C  0.58358333  0.59208647  0.77779670     0.11400
C1055       C  0.62028782  0.59179628  0.76493981    -0.02900
C1056       C  0.62722068  0.60305844  0.72831823    -0.05700
C1057       C  0.59869659  0.61229906  0.70295435    -0.16500
C1058       C  0.56147015  0.61339446  0.71703352     0.02500
C1059       C  0.57380950  0.58042244  0.81591148     0.12400
C1060       C  0.65182771  0.57839410  0.78954807     0.63000
H1061       H  0.65594873  0.60447690  0.71993751     0.12400
C1062       C  0.52640691  0.62474119  0.69611230     0.55200
H1063       H  0.52699610  0.60271085  0.76471984     0.08200
C1064       C  0.57005553  0.60593715  0.84533423    -0.05600
C1065       C  0.56123668  0.59259726  0.88089044    -0.06300
C1066       C  0.55434210  0.55509779  0.88718264    -0.15900
C1067       C  0.55714619  0.52974920  0.85739938    -0.01500
C1068       C  0.56713979  0.54298013  0.82213157    -0.09000
C1069       C  0.57396441  0.64705749  0.83884569     0.65200
H1070       H  0.55853720  0.61154564  0.90395711     0.10700
C1071       C  0.55018324  0.48893342  0.86283165     0.63600
H1072       H  0.56951504  0.52423005  0.79886112     0.08100
F1073       F  0.50899839  0.65239417  0.71581950    -0.19400
F1074       F  0.50275704  0.59484099  0.69410336    -0.15600
F1075       F  0.53148898  0.63763359  0.66059453    -0.19100
F1076       F  0.64628947  0.54179918  0.79825865    -0.22500
F1077       F  0.65337305  0.59856530  0.82206581    -0.24000
F1078       F  0.68580302  0.58147207  0.77219974    -0.18000
F1079       F  0.51306119  0.48298396  0.86972849    -0.20400
F1080       F  0.57091082  0.47604094  0.89246283    -0.21600
F1081       F  0.55974601  0.46876287  0.83168309    -0.18800
F1082       F  0.57154858  0.66677430  0.87167180    -0.18900
F1083       F  0.54606195  0.65884395  0.81537029    -0.22700
F1084       F  0.60770338  0.65502778  0.82282373    -0.24300
loop_ 
_geom_bond_atom_site_label_1 
_geom_bond_atom_site_label_2 
_geom_bond_distance 
_geom_bond_site_symmetry_2 
_ccdc_geom_bond_type 
C1            C2   1.530       .  S
C1            C7   1.553       .  S
C1            C5   1.529       .  S
C1         C1057   1.544       .  S
C2            H9   1.087       .  S
C2            C3   1.359       .  D
C3            C4   1.541       .  S
C3          C993   1.482       .  S
C4            C8   1.549       .  S
C4            C6   1.548       .  S
C4           H10   1.099       .  S
C5           H11   1.087       .  S
C5            C6   1.360       .  D
C6          C970   1.483       .  S
C7           H12   1.086       .  S
C7            C8   1.377       .  D
C8         C1034   1.515       .  S
C13          C14   1.557       .  S
C13          C19   1.535       .  S
C13          C17   1.535       .  S
C13         C929   1.555       .  S
C14          H21   1.081       .  S
C14          C15   1.367       .  D
C15          C16   1.537       .  S
C15         C906   1.494       .  S
C16          C20   1.544       .  S
C16          C18   1.553       .  S
C16          H22   1.109       .  S
C17          H23   1.085       .  S
C17          C18   1.367       .  D
C18         C842   1.500       .  S
C19          H24   1.086       .  S
C19          C20   1.365       .  D
C20         C865   1.487       .  S
C25          C26   1.527       .  S
C25          C31   1.545       .  S
C25          C29   1.545       .  S
C25         C769   1.545       .  S
C26          H33   1.086       .  S
C26          C27   1.363       .  D
C27          C28   1.550       .  S
C27         C737   1.491       .  S
C28          C32   1.542       .  S
C28          C30   1.542       .  S
C28          H34   1.110       .  S
C29          H35   1.081       .  S
C29          C30   1.365       .  D
C30         C714   1.495       .  S
C31          H36   1.084       .  S
C31          C32   1.369       .  D
C32         C801   1.490       .  S
C37          C38   1.556       .  S
C37          C43   1.526       .  S
C37          C41   1.536       .  S
C37         C650   1.545       .  S
C38          H45   1.084       .  S
C38          C39   1.375       .  D
C39          C40   1.544       .  S
C39         C609   1.508       .  S
C40          C44   1.542       .  S
C40          C42   1.548       .  S
C40          H46   1.104       .  S
C41          H47   1.084       .  S
C41          C42   1.365       .  D
C42         C961   1.493       .  S
C43          H48   1.087       .  S
C43          C44   1.359       .  D
C44         C682   1.482       .  S
C49          C50   1.548       .  S
C49          C55   1.536       .  S
C49          C53   1.534       .  S
C49         C554   1.550       .  S
C50          H57   1.083       .  S
C50          C51   1.360       .  D
C51          C52   1.533       .  S
C51         C513   1.482       .  S
C52          C56   1.550       .  S
C52          C54   1.541       .  S
C52          H58   1.099       .  S
C53          H59   1.085       .  S
C53          C54   1.364       .  D
C54         C490   1.478       .  S
C55          H60   1.086       .  S
C55          C56   1.379       .  D
C56         C577   1.517       .  S
C61          C62   1.533       .  S
C61          C67   1.535       .  S
C61          C65   1.546       .  S
C61         C458   1.542       .  S
C62          H69   1.086       .  S
C62          C63   1.364       .  D
C63          C64   1.545       .  S
C63         C417   1.485       .  S
C64          C68   1.537       .  S
C64          C66   1.550       .  S
C64          H70   1.102       .  S
C65          H71   1.079       .  S
C65          C66   1.367       .  D
C66         C705   1.503       .  S
C67          H72   1.087       .  S
C67          C68   1.365       .  D
C68         C394   1.493       .  S
C73          C74   1.537       .  S
C73          C79   1.537       .  S
C73          C77   1.544       .  S
C73         C353   1.544       .  S
C74          H81   1.086       .  S
C74          C75   1.362       .  D
C75          C76   1.541       .  S
C75         C321   1.494       .  S
C76          C80   1.548       .  S
C76          C78   1.551       .  S
C76          H82   1.109       .  S
C77          H83   1.085       .  S
C77          C78   1.365       .  D
C78         C481   1.502       .  S
C79          H84   1.078       .  S
C79          C80   1.367       .  D
C80         C298   1.489       .  S
C85          C86   1.552       .  S
C85          C91   1.538       .  S
C85          C89   1.536       .  S
C85         C225   1.552       .  S
C86          H93   1.084       .  S
C86          C87   1.368       .  D
C87          C88   1.541       .  S
C87         C193   1.493       .  S
C88          C92   1.549       .  S
C88          C90   1.543       .  S
C88          H94   1.110       .  S
C89          H95   1.083       .  S
C89          C90   1.361       .  D
C90         C833   1.485       .  S
C91          H96   1.085       .  S
C91          C92   1.372       .  D
C92         C257   1.505       .  S
Zn97        O101   1.970   1_566  S
Zn97        O102   2.025   1_565  S
Zn97        O106   2.033   1_565  S
Zn97        O113   2.028       .  S
Zn98        O101   1.981       .  S
Zn98        O103   2.030       .  S
Zn98        O105   2.035       .  S
Zn98        O109   2.042       .  S
Zn99        O101   1.966   1_655  S
Zn99        O104   2.045   1_554  S
Zn99        O107   2.030       .  S
Zn99        O110   2.039       .  S
Zn100       O101   1.969   1_665  S
Zn100       O108   2.038       .  S
Zn100       O111   2.027   1_655  S
Zn100       O112   2.043   1_655  S
O102        C114   1.273       .  A
O103        C115   1.275   1_455  A
O104        C116   1.276       .  A
O105        C114   1.276   1_554  A
O106        C116   1.274   1_455  A
O107        C115   1.274       .  A
O108        C117   1.275       .  A
O109        C118   1.276   1_545  A
O110        C117   1.276   1_545  A
O111        C118   1.274       .  A
O112        C119   1.277   1_554  A
O113        C119   1.275       .  A
C114        C362   1.494       .  S
C115        C449   1.493       .  S
C116        C938   1.494       .  S
C117        C586   1.486       .  S
C118        C266   1.491       .  S
C119        C810   1.487       .  S
Zn120       O124   1.973       .  S
Zn120       O125   2.036   1_545  S
Zn120       O129   2.034   1_545  S
Zn120       O136   2.050       .  S
Zn121       O124   1.966       .  S
Zn121       O126   2.025       .  S
Zn121       O128   2.010       .  S
Zn121       O132   2.015       .  S
Zn122       O124   1.970   1_565  S
Zn122       O127   2.025       .  S
Zn122       O130   2.041       .  S
Zn122       O133   2.035   1_565  S
Zn123       O124   1.969       .  S
Zn123       O131   2.033       .  S
Zn123       O134   2.024       .  S
Zn123       O135   2.015       .  S
O125        C137   1.275   1_565  A
O126        C138   1.273   1_545  A
O127        C139   1.275       .  A
O128        C137   1.271       .  A
O129        C139   1.275       .  A
O130        C138   1.275       .  A
O131        C140   1.275       .  A
O132        C141   1.272       .  A
O133        C140   1.275       .  A
O134        C141   1.274       .  A
O135        C142   1.272       .  A
O136        C142   1.277       .  A
C137        C522   1.481   1_545  S
C138        C202   1.486       .  S
C139       C1002   1.487       .  S
C140        C330   1.490       .  S
C141        C618   1.475       .  S
C142        C897   1.480       .  S
Zn143       O147   1.957       .  S
Zn143       O148   2.023       .  S
Zn143       O152   2.005       .  S
Zn143       O159   2.008   1_554  S
Zn144       O147   1.968       .  S
Zn144       O149   2.028       .  S
Zn144       O151   2.042       .  S
Zn144       O155   2.030       .  S
Zn145       O147   1.971       .  S
Zn145       O150   2.032       .  S
Zn145       O153   2.023       .  S
Zn145       O156   2.035       .  S
Zn146       O147   1.963   1_556  S
Zn146       O154   2.021       .  S
Zn146       O157   2.021       .  S
Zn146       O158   2.020       .  S
O148        C160   1.272       .  A
O149        C161   1.276       .  A
O150        C162   1.275       .  A
O151        C160   1.276       .  A
O152        C162   1.271       .  A
O153        C161   1.274       .  A
O154        C163   1.272   1_556  A
O155        C164   1.275   1_554  A
O156        C163   1.275       .  A
O157        C164   1.274       .  A
O158        C165   1.273       .  A
O159        C165   1.272       .  A
C160        C426   1.502       .  S
C161        C673   1.488       .  S
C162        C545   1.483       .  S
C163        C746   1.492   1_554  S
C164        C289   1.485       .  S
C165       C1066   1.477       .  S
Zn166       O170   1.952       .  S
Zn166       O171   1.993       .  S
Zn166       O175   1.992       .  S
Zn166       O182   2.009       .  S
Zn167       O170   1.972   1_655  S
Zn167       O172   2.033       .  S
Zn167       O174   2.028       .  S
Zn167       O178   2.039       .  S
Zn168       O170   1.978       .  S
Zn168       O173   2.059       .  S
Zn168       O176   2.049       .  S
Zn168       O179   2.048       .  S
Zn169       O170   1.964   1_655  S
Zn169       O177   2.019   1_655  S
Zn169       O180   2.018       .  S
Zn169       O181   2.032   1_655  S
O171        C183   1.270   1_455  A
O172        C184   1.275       .  A
O173        C185   1.277       .  A
O174        C183   1.273       .  A
O175        C185   1.269       .  A
O176        C184   1.278   1_455  A
O177        C186   1.275       .  A
O178        C187   1.277       .  A
O179        C186   1.278       .  A
O180        C187   1.273       .  A
O181        C188   1.275       .  A
O182        C188   1.270       .  A
C183        C385   1.472       .  S
C184        C874   1.490       .  S
C185        C641   1.490       .  S
C186        C778   1.493       .  S
C187       C1025   1.487       .  S
C188        C234   1.492       .  S
C189        C190   1.403       .  A
C189        C194   1.410       .  A
C189        H199   1.083       .  S
C190        C195   1.495       .  S
C190        C191   1.418       .  A
C191        C196   1.518       .  S
C191        C192   1.412       .  A
C192        C193   1.404       .  A
C192        H197   1.083       .  S
C193        C194   1.417       .  A
C194        C198   1.514       .  S
C195        C200   1.419       .  A
C195        C204   1.404       .  A
C196        F212   1.382       .  S
C196        F213   1.382       .  S
C196        F214   1.385       .  S
C198        F209   1.381       .  S
C198        F210   1.385       .  S
C198        F211   1.381       .  S
C200        C205   1.519       .  S
C200        C201   1.411       .  A
C201        C202   1.404       .  A
C201        H206   1.083       .  S
C202        C203   1.418   1_565  A
C203        C207   1.518       .  S
C203        C204   1.411   1_545  A
C204        H208   1.083   1_565  S
C205        F218   1.385       .  S
C205        F219   1.382       .  S
C205        F220   1.382       .  S
C207        F215   1.384       .  S
C207        F216   1.382       .  S
C207        F217   1.384       .  S
C221        C222   1.394       .  A
C221        C226   1.406       .  A
C221        H231   1.085       .  S
C222        C227   1.488       .  S
C222        C223   1.412       .  A
C223        C228   1.520       .  S
C223        C224   1.411       .  A
C224        C225   1.416       .  A
C224        H229   1.079       .  S
C225        C226   1.437       .  A
C226        C230   1.521       .  S
C227        C232   1.414       .  A
C227        C236   1.401       .  A
C228        F244   1.383       .  S
C228        F245   1.382       .  S
C228        F246   1.384       .  S
C230        F241   1.383       .  S
C230        F242   1.385       .  S
C230        F243   1.374       .  S
C232        C237   1.519       .  S
C232        C233   1.408       .  A
C233        C234   1.408       .  A
C233        H238   1.083       .  S
C234        C235   1.424       .  A
C235        C239   1.521       .  S
C235        C236   1.408       .  A
C236        H240   1.083       .  S
C237        F250   1.385       .  S
C237        F251   1.382       .  S
C237        F252   1.381       .  S
C239        F247   1.384       .  S
C239        F248   1.382       .  S
C239        F249   1.385       .  S
C253        C254   1.400       .  A
C253        C258   1.408       .  A
C253        H263   1.085       .  S
C254        C259   1.490       .  S
C254        C255   1.414       .  A
C255        C260   1.519   1_565  S
C255        C256   1.409       .  A
C256        C257   1.409       .  A
C256        H261   1.081       .  S
C257        C258   1.426       .  A
C258        C262   1.518       .  S
C259        C264   1.417       .  A
C259        C268   1.400       .  A
C260        F276   1.382       .  S
C260        F277   1.382       .  S
C260        F278   1.385       .  S
C262        F273   1.385       .  S
C262        F274   1.383       .  S
C262        F275   1.379       .  S
C264        C269   1.518       .  S
C264        C265   1.411       .  A
C265        C266   1.406       .  A
C265        H270   1.083       .  S
C266        C267   1.422       .  A
C267        C271   1.516   1_455  S
C267        C268   1.408       .  A
C268        H272   1.083       .  S
C269        F282   1.384       .  S
C269        F283   1.382       .  S
C269        F284   1.382   1_565  S
C271        F279   1.381       .  S
C271        F280   1.383       .  S
C271        F281   1.385       .  S
C285        C286   1.403       .  A
C285        C290   1.410       .  A
C285        H295   1.083       .  S
C286        C291   1.489       .  S
C286        C287   1.418       .  A
C287        C292   1.520       .  S
C287        C288   1.408       .  A
C288        C289   1.405       .  A
C288        H293   1.083       .  S
C289        C290   1.419       .  A
C290        C294   1.519       .  S
C291        C296   1.417       .  A
C291        C300   1.400       .  A
C292        F308   1.382       .  S
C292        F309   1.382       .  S
C292        F310   1.385       .  S
C294        F305   1.384       .  S
C294        F306   1.382   1_556  S
C294        F307   1.384       .  S
C296        C301   1.518       .  S
C296        C297   1.412       .  A
C297        C298   1.404       .  A
C297        H302   1.083       .  S
C298        C299   1.422       .  A
C299        C303   1.521   1_556  S
C299        C300   1.407       .  A
C300        H304   1.083   1_556  S
C301        F314   1.384       .  S
C301        F315   1.382       .  S
C301        F316   1.382       .  S
C303        F311   1.379       .  S
C303        F312   1.380       .  S
C303        F313   1.385       .  S
C317        C318   1.399       .  A
C317        C322   1.407       .  A
C317        H327   1.083       .  S
C318        C323   1.491       .  S
C318        C319   1.418       .  A
C319        C324   1.518       .  S
C319        C320   1.413       .  A
C320        C321   1.404       .  A
C320        H325   1.083       .  S
C321        C322   1.419       .  A
C322        C326   1.511       .  S
C323        C328   1.416       .  A
C323        C332   1.402       .  A
C324        F340   1.382       .  S
C324        F341   1.382       .  S
C324        F342   1.384       .  S
C326        F337   1.384       .  S
C326        F338   1.379       .  S
C326        F339   1.380       .  S
C328        C333   1.519       .  S
C328        C329   1.412       .  A
C329        C330   1.408       .  A
C329        H334   1.083       .  S
C330        C331   1.421       .  A
C331        C335   1.520       .  S
C331        C332   1.409       .  A
C332        H336   1.083       .  S
C333        F346   1.384       .  S
C333        F347   1.383       .  S
C333        F348   1.382       .  S
C335        F343   1.383       .  S
C335        F344   1.384       .  S
C335        F345   1.384       .  S
C349        C350   1.401       .  A
C349        C354   1.411       .  A
C349        H359   1.084       .  S
C350        C355   1.486       .  S
C350        C351   1.411       .  A
C351        C356   1.520       .  S
C351        C352   1.402       .  A
C352        C353   1.412       .  A
C352        H357   1.081       .  S
C353        C354   1.428       .  A
C354        C358   1.518       .  S
C355        C360   1.414       .  A
C355        C364   1.399       .  A
C356        F372   1.382       .  S
C356        F373   1.382       .  S
C356        F374   1.385       .  S
C358        F369   1.383       .  S
C358        F370   1.385       .  S
C358        F371   1.383       .  S
C360        C365   1.519   1_556  S
C360        C361   1.409   1_556  A
C361        C362   1.408   1_554  A
C361        H366   1.083       .  S
C362        C363   1.426       .  A
C363        C367   1.520       .  S
C363        C364   1.409       .  A
C364        H368   1.083       .  S
C365        F378   1.384       .  S
C365        F379   1.383       .  S
C365        F380   1.382       .  S
C367        F375   1.385       .  S
C367        F376   1.384       .  S
C367        F377   1.382       .  S
C381        C382   1.403       .  A
C381        C386   1.409       .  A
C381        H391   1.083       .  S
C382        C387   1.480       .  S
C382        C383   1.416       .  A
C383        C388   1.521   1_655  S
C383        C384   1.403       .  A
C384        C385   1.402       .  A
C384        H389   1.084   1_655  S
C385        C386   1.415       .  A
C386        C390   1.517       .  S
C387        C392   1.411       .  A
C387        C396   1.399       .  A
C388        F404   1.382       .  S
C388        F405   1.382   1_455  S
C388        F406   1.385       .  S
C390        F401   1.382       .  S
C390        F402   1.385       .  S
C390        F403   1.384       .  S
C392        C397   1.519       .  S
C392        C393   1.404       .  A
C393        C394   1.408       .  A
C393        H398   1.082       .  S
C394        C395   1.424       .  A
C395        C399   1.518       .  S
C395        C396   1.407       .  A
C396        H400   1.083       .  S
C397        F410   1.385       .  S
C397        F411   1.382       .  S
C397        F412   1.382       .  S
C399        F407   1.379       .  S
C399        F408   1.380       .  S
C399        F409   1.385       .  S
C413        C414   1.403       .  A
C413        C418   1.408       .  A
C413        H423   1.083       .  S
C414        C419   1.487       .  S
C414        C415   1.415       .  A
C415        C420   1.519       .  S
C415        C416   1.408       .  A
C416        C417   1.404       .  A
C416        H421   1.083       .  S
C417        C418   1.416       .  A
C418        C422   1.516       .  S
C419        C424   1.414       .  A
C419        C428   1.397       .  A
C420        F436   1.382   1_554  S
C420        F437   1.382   1_554  S
C420        F438   1.384   1_554  S
C422        F433   1.381       .  S
C422        F434   1.384       .  S
C422        F435   1.381       .  S
C424        C429   1.520       .  S
C424        C425   1.410       .  A
C425        C426   1.410       .  A
C425        H430   1.082       .  S
C426        C427   1.429       .  A
C427        C431   1.517       .  S
C427        C428   1.408       .  A
C428        H432   1.083       .  S
C429        F442   1.384       .  S
C429        F443   1.382       .  S
C429        F444   1.382       .  S
C431        F439   1.385       .  S
C431        F440   1.380       .  S
C431        F441   1.383       .  S
C445        C446   1.396       .  A
C445        C450   1.404       .  A
C445        H455   1.084       .  S
C446        C451   1.481       .  S
C446        C447   1.414       .  A
C447        C452   1.519       .  S
C447        C448   1.410       .  A
C448        C449   1.409       .  A
C448        H453   1.083   1_655  S
C449        C450   1.424       .  A
C450        C454   1.513   1_554  S
C451        C456   1.410       .  A
C451        C460   1.395       .  A
C452        F468   1.382       .  S
C452        F469   1.382   1_655  S
C452        F470   1.384   1_655  S
C454        F465   1.385       .  S
C454        F466   1.383       .  S
C454        F467   1.379       .  S
C456        C461   1.522   1_655  S
C456        C457   1.404       .  A
C457        C458   1.416       .  A
C457        H462   1.076       .  S
C458        C459   1.435       .  A
C459        C463   1.524       .  S
C459        C460   1.407       .  A
C460        H464   1.085       .  S
C461        F474   1.385       .  S
C461        F475   1.382       .  S
C461        F476   1.381       .  S
C463        F471   1.383       .  S
C463        F472   1.375       .  S
C463        F473   1.385       .  S
C477        C478   1.395       .  A
C477        C482   1.403   1_554  A
C477        H487   1.086       .  S
C478        C483   1.479       .  S
C478        C479   1.411       .  A
C479        C484   1.519       .  S
C479        C480   1.406   1_554  A
C480        C481   1.410       .  A
C480        H485   1.081       .  S
C481        C482   1.433       .  A
C482        C486   1.523       .  S
C483        C488   1.415       .  A
C483        C492   1.398       .  A
C484        F500   1.382   1_554  S
C484        F501   1.382       .  S
C484        F502   1.384   1_554  S
C486        F497   1.383       .  S
C486        F498   1.385   1_545  S
C486        F499   1.373       .  S
C488        C493   1.518       .  S
C488        C489   1.409   1_545  A
C489        C490   1.404       .  A
C489        H494   1.083       .  S
C490        C491   1.418       .  A
C491        C495   1.517       .  S
C491        C492   1.398   1_565  A
C492        H496   1.085   1_554  S
C493        F506   1.385       .  S
C493        F507   1.382       .  S
C493        F508   1.382       .  S
C495        F503   1.382   1_554  S
C495        F504   1.378       .  S
C495        F505   1.384   1_554  S
C509        C510   1.401       .  A
C509        C514   1.404       .  A
C509        H519   1.083       .  S
C510        C515   1.484       .  S
C510        C511   1.417       .  A
C511        C516   1.519       .  S
C511        C512   1.409       .  A
C512        C513   1.404       .  A
C512        H517   1.083       .  S
C513        C514   1.415       .  A
C514        C518   1.516       .  S
C515        C520   1.417       .  A
C515        C524   1.401   1_565  A
C516        F532   1.382   1_565  S
C516        F533   1.382       .  S
C516        F534   1.385       .  S
C518        F529   1.384       .  S
C518        F530   1.379       .  S
C518        F531   1.383       .  S
C520        C525   1.520       .  S
C520        C521   1.408       .  A
C521        C522   1.403       .  A
C521        H526   1.083       .  S
C522        C523   1.419   1_565  A
C523        C527   1.519       .  S
C523        C524   1.407       .  A
C524        H528   1.083       .  S
C525        F538   1.385       .  S
C525        F539   1.382       .  S
C525        F540   1.382       .  S
C527        F535   1.385       .  S
C527        F536   1.383       .  S
C527        F537   1.382       .  S
C541        C542   1.398       .  A
C541        C546   1.402       .  A
C541        H551   1.083       .  S
C542        C547   1.482       .  S
C542        C543   1.415       .  A
C543        C548   1.518       .  S
C543        C544   1.409       .  A
C544        C545   1.406       .  A
C544        H549   1.083       .  S
C545        C546   1.420       .  A
C546        C550   1.515       .  S
C547        C552   1.410       .  A
C547        C556   1.395       .  A
C548        F564   1.382       .  S
C548        F565   1.382       .  S
C548        F566   1.385       .  S
C550        F561   1.385       .  S
C550        F562   1.382       .  S
C550        F563   1.384       .  S
C552        C557   1.522       .  S
C552        C553   1.406       .  A
C553        C554   1.416       .  A
C553        H558   1.076       .  S
C554        C555   1.436       .  A
C555        C559   1.520       .  S
C555        C556   1.406       .  A
C556        H560   1.085       .  S
C557        F570   1.384       .  S
C557        F571   1.382       .  S
C557        F572   1.383       .  S
C559        F567   1.385       .  S
C559        F568   1.371       .  S
C559        F569   1.383       .  S
C573        C574   1.398       .  A
C573        C578   1.413       .  A
C573        H583   1.083   1_565  S
C574        C579   1.489       .  S
C574        C575   1.411       .  A
C575        C580   1.520       .  S
C575        C576   1.406       .  A
C576        C577   1.414       .  A
C576        H581   1.082       .  S
C577        C578   1.434       .  A
C578        C582   1.521   1_565  S
C579        C584   1.418       .  A
C579        C588   1.400       .  A
C580        F596   1.382       .  S
C580        F597   1.382       .  S
C580        F598   1.385       .  S
C582        F593   1.385       .  S
C582        F594   1.381       .  S
C582        F595   1.373       .  S
C584        C589   1.519       .  S
C584        C585   1.411       .  A
C585        C586   1.404       .  A
C585        H590   1.083       .  S
C586        C587   1.419       .  A
C587        C591   1.514       .  S
C587        C588   1.407       .  A
C588        H592   1.083       .  S
C589        F602   1.384   1_554  S
C589        F603   1.382       .  S
C589        F604   1.383       .  S
C591        F599   1.385       .  S
C591        F600   1.383   1_565  S
C591        F601   1.380       .  S
C605        C606   1.399       .  A
C605        C610   1.412       .  A
C605        H615   1.083       .  S
C606        C611   1.489       .  S
C606        C607   1.413       .  A
C607        C612   1.521       .  S
C607        C608   1.410       .  A
C608        C609   1.410       .  A
C608        H613   1.083       .  S
C609        C610   1.429       .  A
C610        C614   1.519       .  S
C611        C616   1.418       .  A
C611        C620   1.404       .  A
C612        F628   1.383       .  S
C612        F629   1.381       .  S
C612        F630   1.384       .  S
C614        F625   1.378       .  S
C614        F626   1.385       .  S
C614        F627   1.376       .  S
C616        C621   1.519       .  S
C616        C617   1.411       .  A
C617        C618   1.403       .  A
C617        H622   1.083       .  S
C618        C619   1.413       .  A
C619        C623   1.519       .  S
C619        C620   1.407       .  A
C620        H624   1.083       .  S
C621        F634   1.385       .  S
C621        F635   1.382       .  S
C621        F636   1.381       .  S
C623        F631   1.384       .  S
C623        F632   1.383       .  S
C623        F633   1.384       .  S
C637        C638   1.400       .  A
C637        C642   1.408       .  A
C637        H647   1.083       .  S
C638        C643   1.490       .  S
C638        C639   1.417       .  A
C639        C644   1.519       .  S
C639        C640   1.410       .  A
C640        C641   1.405       .  A
C640        H645   1.083       .  S
C641        C642   1.424       .  A
C642        C646   1.522       .  S
C643        C648   1.412       .  A
C643        C652   1.398       .  A
C644        F660   1.382       .  S
C644        F661   1.383       .  S
C644        F662   1.384       .  S
C646        F657   1.385       .  S
C646        F658   1.382       .  S
C646        F659   1.384       .  S
C648        C653   1.518       .  S
C648        C649   1.409       .  A
C649        C650   1.414       .  A
C649        H654   1.078       .  S
C650        C651   1.435       .  A
C651        C655   1.525       .  S
C651        C652   1.407       .  A
C652        H656   1.085       .  S
C653        F666   1.384       .  S
C653        F667   1.382       .  S
C653        F668   1.382       .  S
C655        F663   1.384       .  S
C655        F664   1.377       .  S
C655        F665   1.383       .  S
C669        C670   1.402       .  A
C669        C674   1.409       .  A
C669        H679   1.083       .  S
C670        C675   1.488       .  S
C670        C671   1.414       .  A
C671        C676   1.519       .  S
C671        C672   1.409       .  A
C672        C673   1.407       .  A
C672        H677   1.083       .  S
C673        C674   1.422       .  A
C674        C678   1.521       .  S
C675        C680   1.418       .  A
C675        C684   1.403       .  A
C676        F692   1.382       .  S
C676        F693   1.382       .  S
C676        F694   1.384       .  S
C678        F689   1.383       .  S
C678        F690   1.385       .  S
C678        F691   1.384       .  S
C680        C685   1.520       .  S
C680        C681   1.409       .  A
C681        C682   1.402       .  A
C681        H686   1.083       .  S
C682        C683   1.413       .  A
C683        C687   1.516       .  S
C683        C684   1.408       .  A
C684        H688   1.083       .  S
C685        F698   1.384       .  S
C685        F699   1.382       .  S
C685        F700   1.382       .  S
C687        F695   1.383       .  S
C687        F696   1.382       .  S
C687        F697   1.384       .  S
C701        C702   1.398       .  A
C701        C706   1.402       .  A
C701        H711   1.085       .  S
C702        C707   1.489       .  S
C702        C703   1.417   1_455  A
C703        C708   1.520       .  S
C703        C704   1.409       .  A
C704        C705   1.409       .  A
C704        H709   1.080       .  S
C705        C706   1.431   1_655  A
C706        C710   1.524       .  S
C707        C712   1.422       .  A
C707        C716   1.400   1_554  A
C708        F724   1.380       .  S
C708        F725   1.383       .  S
C708        F726   1.385       .  S
C710        F721   1.386       .  S
C710        F722   1.383       .  S
C710        F723   1.381       .  S
C712        C717   1.519       .  S
C712        C713   1.407       .  A
C713        C714   1.403   1_554  A
C713        H718   1.083       .  S
C714        C715   1.424       .  A
C715        C719   1.520       .  S
C715        C716   1.402       .  A
C716        H720   1.083   1_455  S
C717        F730   1.384       .  S
C717        F731   1.383       .  S
C717        F732   1.382       .  S
C719        F727   1.383       .  S
C719        F728   1.382       .  S
C719        F729   1.384   1_455  S
C733        C734   1.403       .  A
C733        C738   1.409       .  A
C733        H743   1.083       .  S
C734        C739   1.491       .  S
C734        C735   1.418       .  A
C735        C740   1.520       .  S
C735        C736   1.410       .  A
C736        C737   1.401       .  A
C736        H741   1.078       .  S
C737        C738   1.420       .  A
C738        C742   1.519       .  S
C739        C744   1.415   1_556  A
C739        C748   1.402       .  A
C740        F756   1.382       .  S
C740        F757   1.381   1_556  S
C740        F758   1.385       .  S
C742        F753   1.382       .  S
C742        F754   1.385       .  S
C742        F755   1.381       .  S
C744        C749   1.518       .  S
C744        C745   1.411       .  A
C745        C746   1.408   1_554  A
C745        H750   1.083       .  S
C746        C747   1.423       .  A
C747        C751   1.521       .  S
C747        C748   1.409       .  A
C748        H752   1.083       .  S
C749        F762   1.385       .  S
C749        F763   1.382       .  S
C749        F764   1.382       .  S
C751        F759   1.383       .  S
C751        F760   1.384       .  S
C751        F761   1.385       .  S
C765        C766   1.400       .  A
C765        C770   1.409       .  A
C765        H775   1.085       .  S
C766        C771   1.487       .  S
C766        C767   1.413       .  A
C767        C772   1.521       .  S
C767        C768   1.406       .  A
C768        C769   1.414       .  A
C768        H773   1.080       .  S
C769        C770   1.427       .  A
C770        C774   1.519       .  S
C771        C776   1.414       .  A
C771        C780   1.401       .  A
C772        F788   1.382       .  S
C772        F789   1.382       .  S
C772        F790   1.385       .  S
C774        F785   1.382       .  S
C774        F786   1.385       .  S
C774        F787   1.380       .  S
C776        C781   1.520       .  S
C776        C777   1.409       .  A
C777        C778   1.409       .  A
C777        H782   1.083       .  S
C778        C779   1.423       .  A
C779        C783   1.519       .  S
C779        C780   1.409       .  A
C780        H784   1.083       .  S
C781        F794   1.385   1_455  S
C781        F795   1.383       .  S
C781        F796   1.382       .  S
C783        F791   1.385       .  S
C783        F792   1.384       .  S
C783        F793   1.382       .  S
C797        C798   1.403       .  A
C797        C802   1.409       .  A
C797        H807   1.083       .  S
C798        C803   1.489       .  S
C798        C799   1.416       .  A
C799        C804   1.519       .  S
C799        C800   1.408       .  A
C800        C801   1.404       .  A
C800        H805   1.081       .  S
C801        C802   1.417       .  A
C802        C806   1.516       .  S
C803        C808   1.417   1_556  A
C803        C812   1.402       .  A
C804        F820   1.383   1_455  S
C804        F821   1.381   1_556  S
C804        F822   1.385       .  S
C806        F817   1.378       .  S
C806        F818   1.385       .  S
C806        F819   1.380       .  S
C808        C813   1.520       .  S
C808        C809   1.411       .  A
C809        C810   1.405   1_554  A
C809        H814   1.083       .  S
C810        C811   1.419       .  A
C811        C815   1.519       .  S
C811        C812   1.409       .  A
C812        H816   1.083       .  S
C813        F826   1.384       .  S
C813        F827   1.382       .  S
C813        F828   1.381       .  S
C815        F823   1.382       .  S
C815        F824   1.383   1_455  S
C815        F825   1.384       .  S
C829        C830   1.397   1_565  A
C829        C834   1.402       .  A
C829        H839   1.085       .  S
C830        C835   1.488       .  S
C830        C831   1.418   1_545  A
C831        C836   1.518   1_565  S
C831        C832   1.412       .  A
C832        C833   1.403       .  A
C832        H837   1.083       .  S
C833        C834   1.422       .  A
C834        C838   1.516       .  S
C835        C840   1.414       .  A
C835        C844   1.397       .  A
C836        F852   1.382       .  S
C836        F853   1.382       .  S
C836        F854   1.385       .  S
C838        F849   1.384       .  S
C838        F850   1.383       .  S
C838        F851   1.374       .  S
C840        C845   1.518       .  S
C840        C841   1.411   1_455  A
C841        C842   1.410       .  A
C841        H846   1.082       .  S
C842        C843   1.430       .  A
C843        C847   1.523   1_545  S
C843        C844   1.404   1_655  A
C844        H848   1.085   1_545  S
C845        F858   1.384       .  S
C845        F859   1.382       .  S
C845        F860   1.382       .  S
C847        F855   1.385       .  S
C847        F856   1.377   1_565  S
C847        F857   1.383       .  S
C861        C862   1.402       .  A
C861        C866   1.407       .  A
C861        H871   1.085   1_655  S
C862        C867   1.493       .  S
C862        C863   1.417       .  A
C863        C868   1.519       .  S
C863        C864   1.411       .  A
C864        C865   1.404       .  A
C864        H869   1.083       .  S
C865        C866   1.420       .  A
C866        C870   1.517   1_655  S
C867        C872   1.418       .  A
C867        C876   1.402       .  A
C868        F884   1.382       .  S
C868        F885   1.383       .  S
C868        F886   1.384       .  S
C870        F881   1.383       .  S
C870        F882   1.384       .  S
C870        F883   1.377       .  S
C872        C877   1.520       .  S
C872        C873   1.411       .  A
C873        C874   1.405       .  A
C873        H878   1.083       .  S
C874        C875   1.423       .  A
C875        C879   1.520       .  S
C875        C876   1.411       .  A
C876        H880   1.083       .  S
C877        F890   1.384       .  S
C877        F891   1.382   1_655  S
C877        F892   1.383       .  S
C879        F887   1.385       .  S
C879        F888   1.384       .  S
C879        F889   1.383       .  S
C893        C894   1.404       .  A
C893        C898   1.408       .  A
C893        H903   1.083       .  S
C894        C899   1.491       .  S
C894        C895   1.418       .  A
C895        C900   1.519       .  S
C895        C896   1.412       .  A
C896        C897   1.403       .  A
C896        H901   1.083       .  S
C897        C898   1.415       .  A
C898        C902   1.518       .  S
C899        C904   1.417       .  A
C899        C908   1.401       .  A
C900        F916   1.382       .  S
C900        F917   1.382       .  S
C900        F918   1.384       .  S
C902        F913   1.385       .  S
C902        F914   1.383       .  S
C902        F915   1.383       .  S
C904        C909   1.519       .  S
C904        C905   1.410       .  A
C905        C906   1.406       .  A
C905        H910   1.083       .  S
C906        C907   1.418       .  A
C907        C911   1.513       .  S
C907        C908   1.408       .  A
C908        H912   1.083       .  S
C909        F922   1.385       .  S
C909        F923   1.382       .  S
C909        F924   1.382       .  S
C911        F919   1.385       .  S
C911        F920   1.376       .  S
C911        F921   1.381       .  S
C925        C926   1.395       .  A
C925        C930   1.409       .  A
C925        H935   1.085   1_655  S
C926        C931   1.490       .  S
C926        C927   1.410       .  A
C927        C932   1.521       .  S
C927        C928   1.409       .  A
C928        C929   1.418       .  A
C928        H933   1.072       .  S
C929        C930   1.440       .  A
C930        C934   1.525   1_655  S
C931        C936   1.417       .  A
C931        C940   1.398       .  A
C932        F948   1.382       .  S
C932        F949   1.383       .  S
C932        F950   1.384       .  S
C934        F945   1.383       .  S
C934        F946   1.384       .  S
C934        F947   1.371       .  S
C936        C941   1.518   1_545  S
C936        C937   1.413       .  A
C937        C938   1.407       .  A
C937        H942   1.083   1_545  S
C938        C939   1.422       .  A
C939        C943   1.512       .  S
C939        C940   1.407       .  A
C940        H944   1.083       .  S
C941        F954   1.384       .  S
C941        F955   1.382   1_565  S
C941        F956   1.383       .  S
C943        F951   1.385       .  S
C943        F952   1.383       .  S
C943        F953   1.382       .  S
C957        C958   1.397       .  A
C957        C962   1.403       .  A
C957        H967   1.085       .  S
C958        C963   1.483       .  S
C958        C959   1.414       .  A
C959        C964   1.519       .  S
C959        C960   1.410       .  A
C960        C961   1.408       .  A
C960        H965   1.082       .  S
C961        C962   1.428       .  A
C962        C966   1.524       .  S
C963        C968   1.416       .  A
C963        C972   1.398       .  A
C964        F980   1.383       .  S
C964        F981   1.381       .  S
C964        F982   1.384       .  S
C966        F977   1.379       .  S
C966        F978   1.383       .  S
C966        F979   1.385       .  S
C968        C973   1.518       .  S
C968        C969   1.411       .  A
C969        C970   1.403       .  A
C969        H974   1.083       .  S
C970        C971   1.424       .  A
C971        C975   1.522       .  S
C971        C972   1.401       .  A
C972        H976   1.085       .  S
C973        F986   1.385       .  S
C973        F987   1.383       .  S
C973        F988   1.381       .  S
C975        F983   1.383       .  S
C975        F984   1.380       .  S
C975        F985   1.384       .  S
C989        C990   1.401       .  A
C989        C994   1.406       .  A
C989        H999   1.083       .  S
C990        C995   1.486       .  S
C990        C991   1.418       .  A
C991        C996   1.519       .  S
C991        C992   1.410       .  A
C992        C993   1.403       .  A
C992        H997   1.083       .  S
C993        C994   1.415       .  A
C994        C998   1.516       .  S
C995       C1000   1.416       .  A
C995       C1004   1.401       .  A
C996       F1012   1.382       .  S
C996       F1013   1.382       .  S
C996       F1014   1.385       .  S
C998       F1009   1.383       .  S
C998       F1010   1.384       .  S
C998       F1011   1.381       .  S
C1000      C1005   1.520       .  S
C1000      C1001   1.408       .  A
C1001      C1002   1.405       .  A
C1001      H1006   1.083       .  S
C1002      C1003   1.422       .  A
C1003      C1007   1.520       .  S
C1003      C1004   1.409       .  A
C1004      H1008   1.083       .  S
C1005      F1018   1.385       .  S
C1005      F1019   1.382       .  S
C1005      F1020   1.382       .  S
C1007      F1015   1.382       .  S
C1007      F1016   1.383       .  S
C1007      F1017   1.385       .  S
C1021      C1022   1.400       .  A
C1021      C1026   1.408       .  A
C1021      H1031   1.083       .  S
C1022      C1027   1.487       .  S
C1022      C1023   1.416       .  A
C1023      C1028   1.520       .  S
C1023      C1024   1.409       .  A
C1024      C1025   1.405       .  A
C1024      H1029   1.083       .  S
C1025      C1026   1.422       .  A
C1026      C1030   1.520       .  S
C1027      C1032   1.411       .  A
C1027      C1036   1.397       .  A
C1028      F1044   1.382       .  S
C1028      F1045   1.382       .  S
C1028      F1046   1.384       .  S
C1030      F1041   1.382       .  S
C1030      F1042   1.385       .  S
C1030      F1043   1.384       .  S
C1032      C1037   1.520       .  S
C1032      C1033   1.406       .  A
C1033      C1034   1.414       .  A
C1033      H1038   1.082       .  S
C1034      C1035   1.430       .  A
C1035      C1039   1.517       .  S
C1035      C1036   1.410       .  A
C1036      H1040   1.083       .  S
C1037      F1050   1.385       .  S
C1037      F1051   1.382       .  S
C1037      F1052   1.382       .  S
C1039      F1047   1.381       .  S
C1039      F1048   1.372       .  S
C1039      F1049   1.385       .  S
C1053      C1054   1.393       .  A
C1053      C1058   1.406       .  A
C1053      H1063   1.087       .  S
C1054      C1059   1.480       .  S
C1054      C1055   1.407       .  A
C1055      C1060   1.522       .  S
C1055      C1056   1.403       .  A
C1056      C1057   1.416       .  A
C1056      H1061   1.084       .  S
C1057      C1058   1.441       .  A
C1058      C1062   1.530       .  S
C1059      C1064   1.414       .  A
C1059      C1068   1.401       .  A
C1060      F1076   1.382       .  S
C1060      F1077   1.381       .  S
C1060      F1078   1.385       .  S
C1062      F1073   1.384       .  S
C1062      F1074   1.384       .  S
C1062      F1075   1.374       .  S
C1064      C1069   1.521       .  S
C1064      C1065   1.406       .  A
C1065      C1066   1.405       .  A
C1065      H1070   1.083       .  S
C1066      C1067   1.417       .  A
C1067      C1071   1.518       .  S
C1067      C1068   1.406       .  A
C1068      H1072   1.083       .  S
C1069      F1082   1.384       .  S
C1069      F1083   1.382       .  S
C1069      F1084   1.382       .  S
C1071      F1079   1.383       .  S
C1071      F1080   1.384       .  S
C1071      F1081   1.384       .  S
