geometry optimzed in LAMMPS
_audit_creation_date              2020-11-30 
_audit_creation_method            'lammps2cif' 
_symmetry_space_group_name_H-M    'P1' 
_symmetry_Int_Tables_number       1 
_symmetry_cell_setting            triclinic 
loop_ 
_symmetry_equiv_pos_as_xyz 
  x,y,z 
_cell_length_a                    42.11030786718206 
_cell_length_b                    42.44055226927423 
_cell_length_c                    39.10037284567733 
_cell_angle_alpha                 90.05537402132506 
_cell_angle_beta                  90.02110064292056 
_cell_angle_gamma                 90.79657435415817 
loop_ 
_atom_site_label 
_atom_site_type_symbol 
_atom_site_fract_x 
_atom_site_fract_y 
_atom_site_fract_z 
_atom_site_charge 
O1          O  0.41325881  0.49947219  0.44040584    -0.73740
O2          O  0.40948296  0.04816652  0.46491589    -0.52650
C3          C  0.39839798  0.02505796  0.44697354     0.79990
O4          O  0.48868589  0.42337839  0.56061334    -0.58340
O5          O  0.03605152  0.41591235  0.53359130    -0.51370
C6          C  0.01280558  0.40660471  0.55275905     0.72000
O7          O  0.41676557  0.49910729  0.56298893    -0.72900
O8          O  0.40964082  0.04664115  0.53738250    -0.53470
C9          C  0.40057853  0.02396526  0.55722001     0.78000
O10         O  0.48780817  0.42646249  0.43521181    -0.58050
O11         O  0.03464513  0.41668343  0.46186837    -0.51160
C12         C  0.01139018  0.40868974  0.44196827     0.74600
Zr13       Zr  0.46558478  0.47705940  0.44886726     2.54710
O14         O  0.42442674  0.43673917  0.44195076    -0.78610
O15         O  0.46941526  0.48390400  0.38719254    -0.92030
Zr16       Zr  0.46701466  0.47509621  0.54985624     2.64680
O17         O  0.42299180  0.43751655  0.55450897    -0.96980
O18         O  0.47318431  0.47776509  0.61170877    -0.79040
O19         O  0.44466701  0.49741410  0.50015885    -0.82400
O20         O  0.48718526  0.45391824  0.49858068    -2.17110
O21         O  0.08152956  0.01491022  0.43324018    -0.65790
O22         O  0.08979835  0.46825832  0.46022896    -0.50360
C23         C  0.09804014  0.49031316  0.43912326     0.72980
O24         O  0.01350578  0.09125337  0.56123055    -0.58700
O25         O  0.46450923  0.09831434  0.53778376    -0.50680
C26         C  0.48863660  0.10764177  0.55562810     0.74780
O27         O  0.08244067  0.01395041  0.56320350    -0.70090
O28         O  0.09067634  0.46758982  0.53567274    -0.48770
C29         C  0.09903785  0.48957380  0.55691194     0.76160
O30         O  0.01261773  0.09268506  0.44031620    -0.65420
O31         O  0.46386781  0.09884058  0.46492145    -0.52620
C32         C  0.48766165  0.10860599  0.44690978     0.74550
Zr33       Zr  0.03268593  0.04028845  0.44918414     2.77540
O34         O  0.07496526  0.07977147  0.44377933    -0.96170
O35         O  0.02515763  0.03793731  0.38749934    -0.76990
Zr36       Zr  0.03326455  0.03904097  0.55002827     2.70070
O37         O  0.07649371  0.07706062  0.55755329    -0.78240
O38         O  0.02630022  0.03459225  0.61163727    -0.97330
Zr39       Zr  0.45654227  0.05240253  0.50088600     2.21500
Zr40       Zr  0.04356236  0.46303934  0.49830609     2.11130
O41         O  0.05510994  0.01841007  0.49906974    -2.46010
O42         O  0.01235463  0.06200767  0.50018636    -0.78030
O43         O  0.02138505  0.48554327  0.44744173    -0.70230
O44         O  0.47791716  0.02990341  0.55191244    -2.31190
O45         O  0.47702840  0.03167134  0.44847500    -2.27390
O46         O  0.02262478  0.48413420  0.55044129    -0.71990
H47         H  0.48199524  0.43171033  0.49818154     0.80010
H48         H  0.46884458  0.03932129  0.57211346     0.81090
H49         H  0.07773944  0.02240725  0.49886031     0.83320
H50         H  0.46750466  0.04167705  0.42887689     0.80930
H51         H  0.46039116  0.49604311  0.61880075     0.43960
H52         H  0.03512596  0.01377491  0.61748599     0.42930
H53         H  0.08249829  0.08318011  0.53396835     0.42610
H54         H  0.09190882  0.07276595  0.45948622     0.40540
H55         H  0.03291896  0.01688521  0.38084592     0.43680
H56         H  0.45353941  0.50012466  0.38168244     0.38460
H57         H  0.41788720  0.43148890  0.46561662     0.44580
H58         H  0.42648388  0.42214070  0.53587785     0.40990
H59         H  0.08377948  0.07671959  0.42055392     0.45910
H60         H  0.46033730  0.46414297  0.37760278     0.44630
H61         H  0.42692165  0.42572334  0.57589556     0.44770
H62         H  0.04171554  0.05000877  0.62131809     0.45130
C63         C  0.49594321  0.22839287  0.37905657     0.04680
C64         C  0.50083545  0.25684058  0.39680273    -0.11470
C65         C  0.50270362  0.28533623  0.37891567     0.02180
C66         C  0.49990787  0.28529458  0.34324220    -0.10000
C67         C  0.49607016  0.25706140  0.32498938     0.04670
C68         C  0.49410919  0.22856942  0.34316609    -0.09420
H69         H  0.50196187  0.25693075  0.42449816     0.10270
H70         H  0.50026348  0.30757997  0.32972776     0.07790
H71         H  0.49156786  0.20646146  0.32949868     0.07640
C72         C  0.22123889  0.00366780  0.37356899     0.04680
C73         C  0.24825713  0.01095967  0.39343213    -0.11470
C74         C  0.27778141  0.01770746  0.37782094     0.02180
C75         C  0.27965024  0.01833979  0.34186987    -0.10000
C76         C  0.25272787  0.01207072  0.32174568     0.04670
C77         C  0.22407647  0.00369904  0.33774860    -0.09420
H78         H  0.24622819  0.01192942  0.42101895     0.10270
H79         H  0.30206460  0.02367144  0.32943716     0.07790
H80         H  0.20375521  0.99745576  0.32201676     0.07640
C81         C  0.22102782  0.00514396  0.62466008     0.04680
C82         C  0.24956632  0.01087125  0.60673010    -0.11470
C83         C  0.27784647  0.01800660  0.62465910     0.02180
C84         C  0.27697590  0.02040567  0.66056124    -0.10000
C85         C  0.24904524  0.01404144  0.67882967     0.04670
C86         C  0.22146047  0.00606013  0.66062450    -0.09420
H87         H  0.24985032  0.00960300  0.57908294     0.10270
H88         H  0.29853253  0.02622075  0.67443725     0.07790
H89         H  0.19985322  0.00098072  0.67465875     0.07640
C90         C  0.49505930  0.22924439  0.62140070     0.04680
C91         C  0.50105696  0.25654752  0.60219224    -0.11470
C92         C  0.50470553  0.28569982  0.61852543     0.02180
C93         C  0.50217643  0.28763948  0.65414681    -0.10000
C94         C  0.49662623  0.26046582  0.67386883     0.04670
C95         C  0.49302299  0.23121469  0.65717577    -0.09420
H96         H  0.50255335  0.25515199  0.57455236     0.10270
H97         H  0.50381465  0.31053390  0.66637301     0.07790
H98         H  0.48941071  0.20987081  0.67193309     0.07640
C99         C  0.25230241  0.49078392  0.11905971     0.04680
C100        C  0.25498248  0.49112066  0.15477233    -0.11470
C101        C  0.25170650  0.01930172  0.17335313     0.02180
C102        C  0.24529018  0.04726739  0.15531692    -0.10000
C103        C  0.24126910  0.04699735  0.11958426     0.04670
C104        C  0.24508936  0.01859841  0.10162050    -0.09420
H105        H  0.25851322  0.46906390  0.16807111     0.10270
H106        H  0.24361082  0.06939132  0.16897204     0.07790
H107        H  0.24167000  0.01793089  0.07415153     0.07640
O108        O  0.22711350  0.35278947  0.94064130    -0.73740
O109        O  0.27711108  0.35747169  0.96308590    -0.52650
C110        C  0.25325084  0.36805045  0.94619740     0.79990
O111        O  0.15497056  0.27512781  0.06392690    -0.58340
O112        O  0.14514073  0.22883656  0.03622380    -0.51370
C113        C  0.13739867  0.25101700  0.05710435     0.72000
O114        O  0.22832600  0.35110459  0.06126623    -0.72900
O115        O  0.27579834  0.35882789  0.03456448    -0.53470
C116        C  0.25283817  0.36808103  0.05389351     0.78000
O117        O  0.15212323  0.27702129  0.93739173    -0.58050
O118        O  0.14571771  0.22870328  0.96266748    -0.51160
C119        C  0.13613726  0.25167056  0.94397376     0.74600
Zr120      Zr  0.20414579  0.30039332  0.94941729     2.54710
O121        O  0.16338791  0.34018277  0.94398383    -0.78610
O122        O  0.20965329  0.29685515  0.88756353    -0.92030
Zr123      Zr  0.20539766  0.29956082  0.05029570     2.64680
O124        O  0.16499498  0.33991136  0.05489303    -0.96980
O125        O  0.21059314  0.29593142  0.11218661    -0.79040
O126        O  0.22682092  0.32168579  0.99986564    -0.82400
O127        O  0.18234054  0.27861679  0.99999782    -2.17110
O128        O  0.24496971  0.18399242  0.93618697    -0.65790
O129        O  0.19733485  0.17640838  0.96313762    -0.50360
C130        C  0.22032096  0.16730327  0.94383873     0.72980
O131        O  0.31986670  0.25805428  0.06174387    -0.58700
O132        O  0.32860127  0.30585805  0.03709092    -0.50680
C133        C  0.33676296  0.28295655  0.05680329     0.74780
O134        O  0.24648462  0.18322362  0.06161123    -0.70090
O135        O  0.19819566  0.17617998  0.03576585    -0.48770
C136        C  0.22149994  0.16682111  0.05454631     0.76160
O137        O  0.31903667  0.25873113  0.93470862    -0.65420
O138        O  0.32880287  0.30506797  0.96243825    -0.52620
C139        C  0.33645306  0.28299597  0.94136527     0.74550
Zr140      Zr  0.26799210  0.23553243  0.94797744     2.77540
O141        O  0.31009221  0.19744344  0.93971841    -0.96170
O142        O  0.26052880  0.24115796  0.88655510    -0.76990
Zr143      Zr  0.26889550  0.23473608  0.04931204     2.70070
O144        O  0.30949093  0.19488938  0.05552319    -0.78240
O145        O  0.26321485  0.23979133  0.11101639    -0.97330
Zr146      Zr  0.28234694  0.31130300  0.99947703     2.21500
Zr147      Zr  0.19186704  0.22307721  0.99955146     2.11130
O148        O  0.24745618  0.21304007  0.99868317    -2.46010
O149        O  0.29131218  0.25594003  0.99865500    -0.78030
O150        O  0.21281579  0.24526901  0.94771435    -0.70230
O151        O  0.26046138  0.28967240  0.05104209    -2.30870
O152        O  0.25937718  0.29048948  0.94782172    -2.27390
O153        O  0.21384332  0.24448038  0.05119018    -0.71990
H154        H  0.15989269  0.28288277  0.00040514     0.80010
H155        H  0.27024419  0.29904535  0.07103404     0.81090
H156        H  0.25177189  0.19077743  0.99857010     0.83320
H157        H  0.26893260  0.30014267  0.92788708     0.80930
H158        H  0.22790649  0.31099036  0.11810088     0.43960
H159        H  0.24205673  0.23046611  0.11609733     0.42930
H160        H  0.31280297  0.18690441  0.03200546     0.42610
H161        H  0.30652143  0.18134373  0.95766742     0.40540
H162        H  0.23992411  0.23051040  0.88180293     0.43680
H163        H  0.22645219  0.31250595  0.88176973     0.38460
H164        H  0.15945442  0.34717670  0.96776024     0.44580
H165        H  0.14810587  0.33342006  0.03861875     0.40990
H166        H  0.30496512  0.18658087  0.91794162     0.45910
H167        H  0.18987899  0.30607326  0.87852658     0.44630
H168        H  0.15544526  0.33691134  0.07781777     0.44770
H169        H  0.27844267  0.22453039  0.12050984     0.45130
C170        C  0.45844052  0.27293475  0.12482467     0.04680
C171        C  0.45954263  0.27145368  0.16076657    -0.11470
C172        C  0.48736455  0.26290055  0.17759587     0.02180
C173        C  0.01443812  0.25637419  0.15850494    -0.10000
C174        C  0.01468071  0.25989410  0.12284880     0.04670
C175        C  0.48636559  0.26769753  0.10589407    -0.09420
H176        H  0.43860259  0.27673941  0.17571295     0.10270
H177        H  0.03580599  0.24920742  0.17170150     0.07790
H178        H  0.48603797  0.26957322  0.07827763     0.07640
C179        C  0.24963645  0.49021886  0.88190296     0.04680
C180        C  0.25166371  0.49038912  0.84608189    -0.11470
C181        C  0.24547039  0.01785835  0.82730534     0.02180
C182        C  0.23751697  0.04556071  0.84486163    -0.10000
C183        C  0.23604123  0.04598843  0.88072925     0.04670
C184        C  0.24221603  0.01827856  0.89905028    -0.09420
H185        H  0.25739688  0.46884588  0.83269788     0.10270
H186        H  0.23258700  0.06685006  0.83065708     0.07790
H187        H  0.24100259  0.01853480  0.92673419     0.07640
C188        C  0.45873442  0.27346342  0.87419289     0.04680
C189        C  0.46126734  0.27580069  0.83842072    -0.11470
C190        C  0.48972806  0.26893550  0.82165468     0.02180
C191        C  0.01668893  0.26193540  0.84106818    -0.10000
C192        C  0.01510334  0.26034745  0.87691110     0.04670
C193        C  0.48580284  0.26541897  0.89323022    -0.09420
H194        H  0.44092085  0.28269172  0.82335779     0.10270
H195        H  0.03897030  0.25769298  0.82814788     0.07790
H196        H  0.48402582  0.26261522  0.92068855     0.07640
C197        C  0.20246932  0.09370900  0.89194588     0.25150
C198        C  0.22961004  0.07576673  0.89917988    -0.22960
C199        C  0.25166161  0.08711360  0.92329607     0.20050
C200        C  0.24740180  0.11630094  0.93886141     0.25090
C201        C  0.22080203  0.13464323  0.93110290    -0.22910
C202        C  0.19796718  0.12293175  0.90805606     0.19990
F203        F  0.17240027  0.14048846  0.89974953    -0.12870
F204        F  0.18062412  0.08311678  0.86896943    -0.15230
F205        F  0.27001055  0.12729334  0.96075004    -0.15230
F206        F  0.27834186  0.07072371  0.93038939    -0.12870
C207        C  0.27932234  0.40997939  0.91026462     0.25150
C208        C  0.25496055  0.40040960  0.93261755    -0.22960
C209        C  0.23029095  0.42126732  0.94002994     0.20050
C210        C  0.22928608  0.45083980  0.92450296     0.25090
C211        C  0.25292285  0.46016951  0.90103339    -0.22910
C212        C  0.27826124  0.43961297  0.89443989     0.19990
F213        F  0.30175440  0.44804704  0.87235880    -0.12870
F214        F  0.30318408  0.39003850  0.90241175    -0.15230
F215        F  0.20418542  0.46965158  0.93106833    -0.15230
F216        F  0.20674753  0.41270007  0.96201039    -0.12870
C217        C  0.39353875  0.30261774  0.06514678     0.25150
C218        C  0.36750649  0.28376663  0.07560459    -0.22960
C219        C  0.37167129  0.26291609  0.10338598     0.20050
C220        C  0.40117547  0.25942643  0.11857650     0.25090
C221        C  0.42738954  0.27752828  0.10770831    -0.22910
C222        C  0.42329500  0.29950222  0.08110204     0.19990
F223        F  0.44796750  0.31805227  0.07072470    -0.12870
F224        F  0.39047292  0.32349724  0.03915038    -0.15230
F225        F  0.40424489  0.23728582  0.14340078    -0.15230
F226        F  0.34719263  0.24524414  0.11597901    -0.12870
C227        C  0.04911881  0.23835420  0.07536406     0.25150
C228        C  0.04544079  0.25727448  0.10467526    -0.22960
C229        C  0.07215575  0.27294685  0.11832982     0.20050
C230        C  0.10197839  0.26902871  0.10405738     0.25090
C231        C  0.10599790  0.25053312  0.07439128    -0.22910
C232        C  0.07918546  0.23515678  0.06016079     0.19990
F233        F  0.08182968  0.21781999  0.03113752    -0.12870
F234        F  0.02378949  0.22270652  0.06173128    -0.15230
F235        F  0.12698635  0.28382464  0.11947091    -0.15230
F236        F  0.06938656  0.29269690  0.14551705    -0.12870
C237        C  0.39469567  0.29809498  0.93775393     0.25150
C238        C  0.36736863  0.28423140  0.92309730    -0.22960
C239        C  0.37031803  0.26811438  0.89171414     0.20050
C240        C  0.39984890  0.26442939  0.87638444     0.25090
C241        C  0.42736631  0.27785599  0.89109230    -0.22910
C242        C  0.42440951  0.29509220  0.92181010     0.19990
F243        F  0.45022860  0.30905214  0.93646606    -0.12870
F244        F  0.39293961  0.31347171  0.96810524    -0.15230
F245        F  0.40151200  0.24639683  0.84774048    -0.15230
F246        F  0.34451493  0.25521066  0.87586777    -0.12870
C247        C  0.08150560  0.27213002  0.94124621     0.25150
C248        C  0.10379940  0.25015320  0.93001896    -0.22960
C249        C  0.09590252  0.22946679  0.90330499     0.20050
C250        C  0.06639152  0.23165494  0.88697132     0.25090
C251        C  0.04446860  0.25478039  0.89706946    -0.22910
C252        C  0.05210614  0.27446205  0.92498988     0.19990
F253        F  0.03199269  0.29734591  0.93524483    -0.12870
F254        F  0.08872034  0.29211230  0.96736359    -0.15230
F255        F  0.05952157  0.21156077  0.86087382    -0.15230
F256        F  0.11738378  0.20834320  0.89188167    -0.12870
C257        C  0.25236383  0.08607784  0.07303363     0.25150
C258        C  0.23357426  0.07646004  0.10091351    -0.22960
C259        C  0.20813595  0.09561114  0.11121907     0.20050
C260        C  0.20231309  0.12429274  0.09452290     0.25090
C261        C  0.22194406  0.13422206  0.06750530    -0.22910
C262        C  0.24672626  0.11470881  0.05672985     0.19990
F263        F  0.26659763  0.12425471  0.03133215    -0.12870
F264        F  0.27745467  0.06864675  0.06282874    -0.15230
F265        F  0.17880197  0.14314144  0.10597933    -0.15230
F266        F  0.18923498  0.08674966  0.13773623    -0.12870
C267        C  0.28155500  0.44809457  0.08805075     0.25150
C268        C  0.25304326  0.46047014  0.10058761    -0.22960
C269        C  0.22478918  0.44324709  0.09661761     0.20050
C270        C  0.22482269  0.41378498  0.08086224     0.25090
C271        C  0.25342779  0.40049601  0.06883941    -0.22910
C272        C  0.28179294  0.41833599  0.07217189     0.19990
F273        F  0.30981694  0.40674506  0.06098408    -0.12870
F274        F  0.30916872  0.46464116  0.09167015    -0.15230
F275        F  0.19649843  0.39845269  0.07737521    -0.15230
F276        F  0.19701119  0.45490761  0.10851499    -0.12870
C277        C  0.47028157  0.24712169  0.72987832     0.25150
C278        C  0.49464826  0.26285567  0.71176307    -0.22960
C279        C  0.01699831  0.28122888  0.73014786     0.20050
C280        C  0.01499045  0.28381306  0.76572708     0.25090
C281        C  0.49093898  0.26770676  0.78378045    -0.22910
C282        C  0.46858877  0.24935903  0.76551078     0.19990
F283        F  0.44549843  0.23290605  0.78226046    -0.12870
F284        F  0.44772534  0.22993947  0.71310009    -0.15230
F285        F  0.03643075  0.30233684  0.78253289    -0.15230
F286        F  0.04132776  0.29616195  0.71379030    -0.12870
C287        C  0.26377202  0.03982027  0.73502248     0.25150
C288        C  0.24859499  0.01508417  0.71694726    -0.22960
C289        C  0.23253144  0.99138530  0.73564844     0.20050
C290        C  0.23100212  0.99276728  0.77127462     0.25090
C291        C  0.24649328  0.01718769  0.78932467    -0.22910
C292        C  0.26306021  0.04062345  0.77082947     0.19990
F293        F  0.27905375  0.06406718  0.78741698    -0.12870
F294        F  0.27878653  0.06364908  0.71810886    -0.15230
F295        F  0.21380180  0.47037237  0.78811128    -0.15230
F296        F  0.21870098  0.96636970  0.71955638    -0.12870
C297        C  0.23141953  0.03593260  0.23127939     0.25150
C298        C  0.25346084  0.01901609  0.21155082    -0.22960
C299        C  0.27626540  0.50074695  0.22874913     0.20050
C300        C  0.27627846  0.49864361  0.26452022     0.25090
C301        C  0.25389536  0.01513321  0.28393900    -0.22910
C302        C  0.23188309  0.03423244  0.26699016     0.19990
F303        F  0.21066943  0.05133054  0.28512399    -0.12870
F304        F  0.20848202  0.05322516  0.21612202    -0.15230
F305        F  0.29755895  0.47968462  0.28013053    -0.15230
F306        F  0.29872715  0.48494210  0.21100664    -0.12870
C307        C  0.46825858  0.24173300  0.23382735     0.25150
C308        C  0.48885590  0.26159626  0.21526325    -0.22960
C309        C  0.01190449  0.27958218  0.23272085     0.20050
C310        C  0.01468454  0.27748751  0.26815776     0.25090
C311        C  0.49393038  0.25783922  0.28706922    -0.22910
C312        C  0.47064556  0.23994964  0.26947756     0.19990
F313        F  0.44972032  0.22127540  0.28675356    -0.12870
F314        F  0.44622960  0.22364076  0.21735430    -0.15230
F315        F  0.03813668  0.29435755  0.28386699    -0.15230
F316        F  0.03161445  0.29949687  0.21537847    -0.12870
C317        C  0.48078451  0.32870106  0.58522200     0.25150
C318        C  0.50806374  0.31477449  0.59838015    -0.22960
C319        C  0.03774962  0.32981049  0.59420119     0.20050
C320        C  0.03990219  0.35924776  0.57794282     0.25090
C321        C  0.01223748  0.37402797  0.56625573    -0.22910
C322        C  0.48279651  0.35795966  0.56924496     0.19990
F323        F  0.45573239  0.37067407  0.55685224    -0.12870
F324        F  0.45194546  0.31437571  0.58896176    -0.15230
F325        F  0.06864602  0.37387948  0.57514498    -0.15230
F326        F  0.06441217  0.31630840  0.60661247    -0.12870
C327        C  0.46368470  0.18147680  0.60293469     0.25150
C328        C  0.49258071  0.19846693  0.60399621    -0.22960
C329        C  0.01943852  0.18612886  0.58799346     0.20050
C330        C  0.01772623  0.15696022  0.57163714     0.25090
C331        C  0.48895714  0.13958815  0.57071441    -0.22910
C332        C  0.46178622  0.15228916  0.58609560     0.19990
F333        F  0.43382555  0.13597750  0.58593137    -0.12870
F334        F  0.43738157  0.19323237  0.61810315    -0.15230
F335        F  0.04431557  0.14572319  0.55651758    -0.15230
F336        F  0.04759527  0.20211117  0.58889092    -0.12870
C337        C  0.48088453  0.33770871  0.39200037     0.25150
C338        C  0.50485527  0.31575904  0.39706111    -0.22960
C339        C  0.03116619  0.32386033  0.41752259     0.20050
C340        C  0.03378543  0.35407494  0.43206666     0.25090
C341        C  0.01000777  0.37661502  0.42627994    -0.22910
C342        C  0.48333300  0.36765221  0.40616546     0.19990
F343        F  0.45910714  0.38764574  0.39993991    -0.12870
F344        F  0.45475550  0.33003901  0.37317958    -0.15230
F345        F  0.05960143  0.36114804  0.45154761    -0.15230
F346        F  0.05468984  0.30281926  0.42260781    -0.12870
C347        C  0.01639538  0.18928549  0.42094207     0.25150
C348        C  0.49257658  0.19846652  0.39804401    -0.22960
C349        C  0.46577482  0.17874423  0.39313340     0.20050
C350        C  0.46311651  0.15001771  0.41054713     0.25090
C351        C  0.48741159  0.14056548  0.43265619    -0.22910
C352        C  0.01391608  0.16048470  0.43793738     0.19990
F353        F  0.03774491  0.15167856  0.45916293    -0.12870
F354        F  0.04272186  0.20760808  0.42573279    -0.15230
F355        F  0.43774423  0.13072675  0.40446292    -0.15230
F356        F  0.44231227  0.18724209  0.37132096    -0.12870
C357        C  0.15703061  0.47395395  0.56284670     0.25150
C358        C  0.12986934  0.48895856  0.57566821    -0.22960
C359        C  0.13317975  0.00794674  0.60518005     0.20050
C360        C  0.16276407  0.01411357  0.61946068     0.25090
C361        C  0.19008918  0.99943804  0.60683590    -0.22910
C362        C  0.18687528  0.47889109  0.57853813     0.19990
F363        F  0.21246648  0.46352235  0.56612495    -0.12870
F364        F  0.15496060  0.45528888  0.53474086    -0.15230
F365        F  0.16460072  0.03560312  0.64519599    -0.15230
F366        F  0.10766643  0.02160141  0.62010635    -0.12870
C367        C  0.33522641  0.00472995  0.62028942     0.25150
C368        C  0.30903773  0.02077107  0.60687618    -0.22960
C369        C  0.31338215  0.03935128  0.57730057     0.20050
C370        C  0.34333430  0.04148412  0.56140901     0.25090
C371        C  0.36944472  0.02529691  0.57506225    -0.22910
C372        C  0.36497894  0.00746658  0.60514033     0.19990
F373        F  0.38949402  0.99218720  0.62007914    -0.12870
F374        F  0.33194486  0.98540040  0.64777554    -0.15230
F375        F  0.34648122  0.05851857  0.53220619    -0.15230
F376        F  0.28878369  0.05560930  0.56393507    -0.12870
C377        C  0.13264948  0.00722392  0.39036814     0.25150
C378        C  0.12888434  0.48917750  0.42044566    -0.22960
C379        C  0.15570770  0.47411494  0.43398199     0.20050
C380        C  0.18573620  0.47829745  0.41866018     0.25090
C381        C  0.18952814  0.99780484  0.38966355    -0.22910
C382        C  0.16246817  0.01204292  0.37577058     0.19990
F383        F  0.16489831  0.03206147  0.34878614    -0.12870
F384        F  0.10741084  0.02115824  0.37525145    -0.15230
F385        F  0.21106231  0.46333217  0.43226400    -0.15230
F386        F  0.15320571  0.45636026  0.46270496    -0.12870
C387        C  0.35843750  0.04899907  0.40777830     0.25150
C388        C  0.36598259  0.02698236  0.43312993    -0.22960
C389        C  0.34340215  0.00393397  0.44243658     0.20050
C390        C  0.31420497  0.00183447  0.42553471     0.25090
C391        C  0.30700935  0.02279122  0.39879175    -0.22910
C392        C  0.32914419  0.04699709  0.39075177     0.19990
F393        F  0.32270367  0.06837215  0.36597386    -0.12870
F394        F  0.38013109  0.07123265  0.39813840    -0.15230
F395        F  0.29387332  0.47798655  0.43395499    -0.15230
F396        F  0.35015887  0.48269573  0.46726983    -0.12870
O397        O  0.41325315  0.99947100  0.44040902    -0.73740
O398        O  0.40948730  0.54816672  0.46491479    -0.52650
C399        C  0.39840313  0.52505870  0.44697108     0.79990
O400        O  0.48868342  0.92337917  0.56061474    -0.58340
O401        O  0.03604833  0.91591270  0.53359139    -0.51370
C402        C  0.01280284  0.90660529  0.55275987     0.72000
O403        O  0.41676286  0.99910794  0.56298997    -0.72900
O404        O  0.40964402  0.54664076  0.53738187    -0.53470
C405        C  0.40058151  0.52396482  0.55721921     0.78000
O406        O  0.48780301  0.92646171  0.43521314    -0.58050
O407        O  0.03464089  0.91668346  0.46186821    -0.51160
C408        C  0.01138559  0.90868942  0.44196878     0.74600
Zr409      Zr  0.46557949  0.97705857  0.44886884     2.54710
O410        O  0.42442174  0.93673769  0.44195446    -0.78610
O411        O  0.46940771  0.98390236  0.38719387    -0.92030
Zr412      Zr  0.46701229  0.97509725  0.54985793     2.64680
O413        O  0.42298968  0.93751781  0.55451571    -0.96980
O414        O  0.47318450  0.97776878  0.61171002    -0.79040
O415        O  0.44466341  0.99741424  0.50016070    -0.82400
O416        O  0.48718136  0.95391834  0.49858208    -2.17110
O417        O  0.08153477  0.51491160  0.43324261    -0.65790
O418        O  0.08979387  0.96825770  0.46022780    -0.50360
C419        C  0.09803524  0.99031208  0.43912138     0.72980
O420        O  0.01350815  0.59125259  0.56123229    -0.58700
O421        O  0.46451218  0.59831386  0.53778425    -0.50680
C422        C  0.48863917  0.60764112  0.55562924     0.74780
O423        O  0.08244320  0.51394968  0.56320544    -0.70090
O424        O  0.09067290  0.96758994  0.53567164    -0.48770
C425        C  0.09903486  0.98957413  0.55691040     0.76160
O426        O  0.01262202  0.59268577  0.44031734    -0.65420
O427        O  0.46387159  0.59884050  0.46492166    -0.52620
C428        C  0.48766550  0.60860623  0.44691031     0.74550
Zr429      Zr  0.03269111  0.54028963  0.44918637     2.77540
O430        O  0.07497071  0.57977291  0.44378635    -0.96170
O431        O  0.02516572  0.53794048  0.38750106    -0.76990
Zr432      Zr  0.03326694  0.53904001  0.55003033     2.70070
O433        O  0.07649560  0.57705947  0.55755967    -0.78240
O434        O  0.02630020  0.53458909  0.61163885    -0.97330
Zr435      Zr  0.45654590  0.55240238  0.50088599     2.21500
Zr436      Zr  0.04355844  0.96303936  0.49830565     2.11130
O437        O  0.05511381  0.51841011  0.49907200    -2.46010
O438        O  0.01235827  0.56200786  0.50018837    -0.78030
O439        O  0.02137974  0.98554215  0.44744143    -0.70230
O440        O  0.47791940  0.52990246  0.55191278    -2.31190
O441        O  0.47703345  0.53167240  0.44847489    -2.27390
O442        O  0.02262237  0.98413522  0.55044099    -0.71990
H443        H  0.48199132  0.93171033  0.49818335     0.80010
H444        H  0.46884641  0.53931984  0.57211348     0.81090
H445        H  0.07774318  0.52240733  0.49886316     0.83320
H446        H  0.46751040  0.54167825  0.42887703     0.80930
H447        H  0.46038848  0.99604477  0.61880212     0.43960
H448        H  0.03512645  0.51377188  0.61748721     0.42930
H449        H  0.08250210  0.58317910  0.53397533     0.42610
H450        H  0.09191360  0.57276636  0.45949350     0.40540
H451        H  0.03292530  0.51688773  0.38084758     0.43680
H452        H  0.45353070  0.00012198  0.38168403     0.38460
H453        H  0.41788399  0.93148668  0.46562071     0.44580
H454        H  0.42648000  0.92214173  0.53588440     0.40990
H455        H  0.08378584  0.57672236  0.42056114     0.45910
H456        H  0.46033066  0.96414065  0.37760480     0.44630
H457        H  0.42692130  0.92572481  0.57590204     0.44770
H458        H  0.04171459  0.55000583  0.62132096     0.45130
C459        C  0.49594328  0.72839275  0.37905604     0.04680
C460        C  0.50083438  0.75684062  0.39680217    -0.11470
C461        C  0.50270160  0.78533630  0.37891509     0.02180
C462        C  0.49990612  0.78529449  0.34324159    -0.10000
C463        C  0.49606946  0.75706116  0.32498884     0.04670
C464        C  0.49410934  0.72856917  0.34316556    -0.09420
H465        H  0.50196074  0.75693083  0.42449761     0.10270
H466        H  0.50026124  0.80757983  0.32972706     0.07790
H467        H  0.49156878  0.70646111  0.32949818     0.07640
C468        C  0.22124319  0.50366819  0.37356923     0.04680
C469        C  0.24826190  0.51096016  0.39343157    -0.11470
C470        C  0.27778594  0.51770735  0.37781954     0.02180
C471        C  0.27965398  0.51833903  0.34186839    -0.10000
C472        C  0.25273109  0.51207008  0.32174500     0.04670
C473        C  0.22407998  0.50369888  0.33774878    -0.09420
H474        H  0.24623345  0.51193050  0.42101840     0.10270
H475        H  0.30206812  0.52367019  0.32943498     0.07790
H476        H  0.20375829  0.49745563  0.32201755     0.07640
C477        C  0.22103121  0.50514470  0.62466049     0.04680
C478        C  0.24956968  0.51087191  0.60673043    -0.11470
C479        C  0.27784989  0.51800722  0.62465935     0.02180
C480        C  0.27697941  0.52040624  0.66056152    -0.10000
C481        C  0.24904877  0.51404202  0.67883001     0.04670
C482        C  0.22146393  0.50606089  0.66062487    -0.09420
H483        H  0.24985360  0.50960359  0.57908326     0.10270
H484        H  0.29853607  0.52622126  0.67443750     0.07790
H485        H  0.19985667  0.50098156  0.67465915     0.07640
C486        C  0.49505985  0.72924426  0.62140094     0.04680
C487        C  0.50105684  0.75654750  0.60219239    -0.11470
C488        C  0.50470467  0.78569991  0.61852556     0.02180
C489        C  0.50217559  0.78763954  0.65414695    -0.10000
C490        C  0.49662609  0.76046578  0.67386899     0.04670
C491        C  0.49302351  0.73121457  0.65717599    -0.09420
H492        H  0.50255326  0.75515196  0.57455252     0.10270
H493        H  0.50381334  0.81053398  0.66637314     0.07790
H494        H  0.48941170  0.70987065  0.67193337     0.07640
C495        C  0.25230257  0.99078392  0.11906051     0.04680
C496        C  0.25498228  0.99112083  0.15477318    -0.11470
C497        C  0.25170691  0.51930145  0.17335248     0.02180
C498        C  0.24529035  0.54726720  0.15531651    -0.10000
C499        C  0.24126896  0.54699734  0.11958389     0.04670
C500        C  0.24508903  0.51859848  0.10161993    -0.09420
H501        H  0.25851284  0.96906413  0.16807214     0.10270
H502        H  0.24361112  0.56939107  0.16897178     0.07790
H503        H  0.24166946  0.51793109  0.07415098     0.07640
O504        O  0.22711352  0.85278955  0.94064114    -0.73740
O505        O  0.27711105  0.85747188  0.96308586    -0.52650
C506        C  0.25325083  0.86805057  0.94619729     0.79990
O507        O  0.15497051  0.77512794  0.06392674    -0.58340
O508        O  0.14514077  0.72883665  0.03622365    -0.51370
C509        C  0.13739866  0.75101709  0.05710416     0.72000
O510        O  0.22832602  0.85110466  0.06126649    -0.72900
O511        O  0.27579832  0.85882805  0.03456469    -0.53470
C512        C  0.25283820  0.86808112  0.05389383     0.78000
O513        O  0.15212325  0.77702138  0.93739166    -0.58050
O514        O  0.14571777  0.72870335  0.96266739    -0.51160
C515        C  0.13613730  0.75167064  0.94397369     0.74600
Zr516      Zr  0.20414581  0.80039343  0.94941720     2.54710
O517        O  0.16338792  0.84018287  0.94398369    -0.78610
O518        O  0.20965332  0.79685521  0.88756345    -0.92030
Zr519      Zr  0.20539759  0.79956099  0.05029561     2.64680
O520        O  0.16499493  0.83991156  0.05489273    -0.96980
O521        O  0.21059285  0.79593152  0.11218654    -0.79040
O522        O  0.22682086  0.82168599  0.99986557    -0.82400
O523        O  0.18234055  0.77861690  0.99999771    -2.17110
O524        O  0.24496984  0.68399255  0.93618695    -0.65790
O525        O  0.19733498  0.67640845  0.96313757    -0.50360
C526        C  0.22032111  0.66730337  0.94383869     0.72980
O527        O  0.31986664  0.75805448  0.06174377    -0.58700
O528        O  0.32860122  0.80585827  0.03709088    -0.50680
C529        C  0.33676291  0.78295675  0.05680319     0.74780
O530        O  0.24648455  0.68322383  0.06161130    -0.70090
O531        O  0.19819565  0.67618014  0.03576582    -0.48770
C532        C  0.22149990  0.66682130  0.05454635     0.76160
O533        O  0.31903670  0.75873133  0.93470869    -0.65420
O534        O  0.32880285  0.80506820  0.96243828    -0.52620
C535        C  0.33645306  0.78299618  0.94136533     0.74550
Zr536      Zr  0.26799215  0.73553259  0.94797746     2.77540
O537        O  0.31009232  0.69744363  0.93971855    -0.96170
O538        O  0.26052894  0.74115808  0.88655510    -0.76990
Zr539      Zr  0.26889545  0.73473628  0.04931205     2.70070
O540        O  0.30949087  0.69488958  0.05552331    -0.78240
O541        O  0.26321480  0.73979162  0.11101639    -0.97330
Zr542      Zr  0.28234689  0.81130323  0.99947703     2.21500
Zr543      Zr  0.19186709  0.72307732  0.99955136     2.11130
O544        O  0.24745622  0.71304021  0.99868316    -2.46010
O545        O  0.29131215  0.75594025  0.99865503    -0.78030
O546        O  0.21281584  0.74526912  0.94771427    -0.70230
O547        O  0.26046131  0.78967259  0.05104207    -2.30870
O548        O  0.25937720  0.79048963  0.94782172    -2.27390
O549        O  0.21384327  0.74448055  0.05119010    -0.71990
H550        H  0.15989269  0.78288286  0.00040502     0.80010
H551        H  0.27024410  0.79904554  0.07103402     0.81090
H552        H  0.25177195  0.69077757  0.99857011     0.83320
H553        H  0.26893263  0.80014282  0.92788708     0.80930
H554        H  0.22790645  0.81099017  0.11810085     0.43960
H555        H  0.24205667  0.73046641  0.11609734     0.42930
H556        H  0.31280291  0.68690456  0.03200560     0.42610
H557        H  0.30652150  0.68134391  0.95766754     0.40540
H558        H  0.23992425  0.73051053  0.88180291     0.43680
H559        H  0.22645228  0.81250595  0.88176965     0.38460
H560        H  0.15945444  0.84717684  0.96776009     0.44580
H561        H  0.14810585  0.83342022  0.03861842     0.40990
H562        H  0.30496530  0.68658106  0.91794175     0.45910
H563        H  0.18987906  0.80607340  0.87852648     0.44630
H564        H  0.15544516  0.83691158  0.07781745     0.44770
H565        H  0.27844262  0.72453068  0.12050986     0.45130
C566        C  0.45844051  0.77293463  0.12482429     0.04680
C567        C  0.45954260  0.77145344  0.16076618    -0.11470
C568        C  0.48736450  0.76290021  0.17759543     0.02180
C569        C  0.01443806  0.75637393  0.15850451    -0.10000
C570        C  0.01468067  0.75989399  0.12284839     0.04670
C571        C  0.48636557  0.76769748  0.10589368    -0.09420
H572        H  0.43860257  0.77673912  0.17571258     0.10270
H573        H  0.03580593  0.74920714  0.17170106     0.07790
H574        H  0.48603797  0.76957326  0.07827724     0.07640
C575        C  0.24963571  0.99021879  0.88190264     0.04680
C576        C  0.25166231  0.99038895  0.84608153    -0.11470
C577        C  0.24547216  0.51785856  0.82730563     0.02180
C578        C  0.23751841  0.54556088  0.84486181    -0.10000
C579        C  0.23604201  0.54598851  0.88072941     0.04670
C580        C  0.24221646  0.51827859  0.89905050    -0.09420
H581        H  0.25739524  0.96884568  0.83269746     0.10270
H582        H  0.23258872  0.56685027  0.83065722     0.07790
H583        H  0.24100254  0.51853479  0.92673439     0.07640
C584        C  0.45873440  0.77346348  0.87419297     0.04680
C585        C  0.46126731  0.77580071  0.83842081    -0.11470
C586        C  0.48972803  0.76893553  0.82165477     0.02180
C587        C  0.01668892  0.76193547  0.84106825    -0.10000
C588        C  0.01510333  0.76034751  0.87691117     0.04670
C589        C  0.48580283  0.76541903  0.89323030    -0.09420
H590        H  0.44092081  0.78269171  0.82335787     0.10270
H591        H  0.03897029  0.75769309  0.82814793     0.07790
H592        H  0.48402582  0.76261529  0.92068863     0.07640
C593        C  0.20246992  0.59370905  0.89194572     0.25150
C594        C  0.22961059  0.57576680  0.89917999    -0.22960
C595        C  0.25166194  0.58711369  0.92329638     0.20050
C596        C  0.24740200  0.61630104  0.93886167     0.25090
C597        C  0.22080227  0.63464330  0.93110292    -0.22910
C598        C  0.19796761  0.62293180  0.90805586     0.19990
F599        F  0.17240075  0.64048848  0.89974908    -0.12870
F600        F  0.18062495  0.58311682  0.86896903    -0.15230
F601        F  0.27001060  0.62729349  0.96075044    -0.15230
F602        F  0.27834215  0.57072381  0.93038997    -0.12870
C603        C  0.27932199  0.90997942  0.91026412     0.25150
C604        C  0.25496047  0.90040971  0.93261743    -0.22960
C605        C  0.23029096  0.92126744  0.94003010     0.20050
C606        C  0.22928590  0.95083986  0.92450305     0.25090
C607        C  0.25292237  0.96016950  0.90103310    -0.22910
C608        C  0.27826070  0.93961295  0.89443930     0.19990
F609        F  0.30175356  0.94804697  0.87235784    -0.12870
F610        F  0.30318363  0.89003850  0.90241100    -0.15230
F611        F  0.20418532  0.96965167  0.93106870    -0.15230
F612        F  0.20674779  0.91270023  0.96201088    -0.12870
C613        C  0.39353871  0.80261788  0.06514665     0.25150
C614        C  0.36750645  0.78376677  0.07560445    -0.22960
C615        C  0.37167127  0.76291614  0.10338575     0.20050
C616        C  0.40117548  0.75942637  0.11857616     0.25090
C617        C  0.42738953  0.77752823  0.10770798    -0.22910
C618        C  0.42329499  0.79950227  0.08110182     0.19990
F619        F  0.44796749  0.81805233  0.07072451    -0.12870
F620        F  0.39047285  0.82349748  0.03915034    -0.15230
F621        F  0.40424491  0.73728565  0.14340033    -0.15230
F622        F  0.34719261  0.74524419  0.11597880    -0.12870
C623        C  0.04911882  0.73835421  0.07536367     0.25150
C624        C  0.04544074  0.75727446  0.10467488    -0.22960
C625        C  0.07215566  0.77294685  0.11832952     0.20050
C626        C  0.10197833  0.76902874  0.10405714     0.25090
C627        C  0.10599789  0.75053318  0.07439103    -0.22910
C628        C  0.07918549  0.73515684  0.06016046     0.19990
F629        F  0.08182977  0.71782009  0.03113716    -0.12870
F630        F  0.02378953  0.72270653  0.06173082    -0.15230
F631        F  0.12698625  0.78382467  0.11947073    -0.15230
F632        F  0.06938640  0.79269685  0.14551677    -0.12870
C633        C  0.39469568  0.79809515  0.93775399     0.25150
C634        C  0.36736864  0.78423160  0.92309736    -0.22960
C635        C  0.37031802  0.76811456  0.89171421     0.20050
C636        C  0.39984888  0.76442951  0.87638453     0.25090
C637        C  0.42736631  0.77785608  0.89109239    -0.22910
C638        C  0.42440953  0.79509232  0.92181017     0.19990
F639        F  0.45022863  0.80905223  0.93646614    -0.12870
F640        F  0.39293964  0.81347189  0.96810530    -0.15230
F641        F  0.40151196  0.74639692  0.84774059    -0.15230
F642        F  0.34451490  0.75521087  0.87586784    -0.12870
C643        C  0.08150563  0.77213008  0.94124621     0.25150
C644        C  0.10379944  0.75015327  0.93001892    -0.22960
C645        C  0.09590254  0.72946687  0.90330496     0.20050
C646        C  0.06639152  0.73165501  0.88697134     0.25090
C647        C  0.04446860  0.75478045  0.89706950    -0.22910
C648        C  0.05210615  0.77446209  0.92498992     0.19990
F649        F  0.03199270  0.79734595  0.93524491    -0.12870
F650        F  0.08872039  0.79211234  0.96736360    -0.15230
F651        F  0.05952155  0.71156085  0.86087383    -0.15230
F652        F  0.11738380  0.70834330  0.89188161    -0.12870
C653        C  0.25236377  0.58607801  0.07303351     0.25150
C654        C  0.23357418  0.57646013  0.10091333    -0.22960
C655        C  0.20813590  0.59561122  0.11121898     0.20050
C656        C  0.20231305  0.62429287  0.09452290     0.25090
C657        C  0.22194403  0.63422225  0.06750533    -0.22910
C658        C  0.24672624  0.61470903  0.05672984     0.19990
F659        F  0.26659765  0.62425501  0.03133222    -0.12870
F660        F  0.27745459  0.56864692  0.06282856    -0.15230
F661        F  0.17880193  0.64314155  0.10597937    -0.15230
F662        F  0.18923493  0.58674967  0.13773612    -0.12870
C663        C  0.28155513  0.94809455  0.08805144     0.25150
C664        C  0.25304345  0.96047004  0.10058855    -0.22960
C665        C  0.22478938  0.94324694  0.09661867     0.20050
C666        C  0.22482284  0.91378489  0.08086313     0.25090
C667        C  0.25342788  0.90049602  0.06884000    -0.22910
C668        C  0.28179303  0.91833603  0.07217243     0.19990
F669        F  0.30981698  0.90674520  0.06098436    -0.12870
F670        F  0.30916884  0.96464119  0.09167069    -0.15230
F671        F  0.19649858  0.89845260  0.07737619    -0.15230
F672        F  0.19701142  0.95490739  0.10851623    -0.12870
C673        C  0.47028167  0.74712139  0.72987850     0.25150
C674        C  0.49464816  0.76285563  0.71176321    -0.22960
C675        C  0.01699804  0.78122910  0.73014792     0.20050
C676        C  0.01499023  0.78381326  0.76572714     0.25090
C677        C  0.49093893  0.76770676  0.78378055    -0.22910
C678        C  0.46858888  0.74935878  0.76551096     0.19990
F679        F  0.44549871  0.73290562  0.78226070    -0.12870
F680        F  0.44772564  0.72993888  0.71310030    -0.15230
F681        F  0.03643039  0.80233723  0.78253291    -0.15230
F682        F  0.04132727  0.79616244  0.71379027    -0.12870
C683        C  0.26377533  0.53982052  0.73502309     0.25150
C684        C  0.24859847  0.51508449  0.71694760    -0.22960
C685        C  0.23253472  0.49138557  0.73564850     0.20050
C686        C  0.23100485  0.49276753  0.77127464     0.25090
C687        C  0.24649571  0.51718793  0.78932498    -0.22910
C688        C  0.26306298  0.54062367  0.77083009     0.19990
F689        F  0.27905627  0.56406738  0.78741790    -0.12870
F690        F  0.27879014  0.56364931  0.71810972    -0.15230
F691        F  0.21379937  0.97037212  0.78811160    -0.15230
F692        F  0.21870449  0.46636998  0.71955619    -0.12870
C693        C  0.23142086  0.53593199  0.23127922     0.25150
C694        C  0.25346186  0.51901562  0.21155012    -0.22960
C695        C  0.27626408  0.00074750  0.22875039     0.20050
C696        C  0.27627651  0.99864432  0.26452151     0.25090
C697        C  0.25389768  0.51513244  0.28393827    -0.22910
C698        C  0.23188506  0.53423171  0.26698997     0.19990
F699        F  0.21067175  0.55132977  0.28512431    -0.12870
F700        F  0.20848306  0.55322458  0.21612239    -0.15230
F701        F  0.29755671  0.97968540  0.28013236    -0.15230
F702        F  0.29872611  0.98494253  0.21100845    -0.12870
C703        C  0.46825872  0.74173218  0.23382672     0.25150
C704        C  0.48885580  0.76159581  0.21526277    -0.22960
C705        C  0.01190407  0.77958203  0.23272047     0.20050
C706        C  0.01468392  0.77748744  0.26815740     0.25090
C707        C  0.49392998  0.75783883  0.28706870    -0.22910
C708        C  0.47064558  0.73994883  0.26947693     0.19990
F709        F  0.44972062  0.72127421  0.28675283    -0.12870
F710        F  0.44623009  0.72363965  0.21735352    -0.15230
F711        F  0.03813566  0.79435787  0.28386682    -0.15230
F712        F  0.03161384  0.79949698  0.21537819    -0.12870
C713        C  0.48078263  0.82870141  0.58522333     0.25150
C714        C  0.50806226  0.81477469  0.59838035    -0.22960
C715        C  0.03774798  0.82981080  0.59420067     0.20050
C716        C  0.03990005  0.85924825  0.57794264     0.25090
C717        C  0.01223501  0.87402856  0.56625662    -0.22910
C718        C  0.48279414  0.85796022  0.56924665     0.19990
F719        F  0.45572967  0.87067474  0.55685496    -0.12870
F720        F  0.45194371  0.81437597  0.58896382    -0.15230
F721        F  0.06864380  0.87388003  0.57514408    -0.15230
F722        F  0.06441089  0.81630865  0.60661098    -0.12870
C723        C  0.46368599  0.68147636  0.60293463     0.25150
C724        C  0.49258185  0.69846669  0.60399660    -0.22960
C725        C  0.01944008  0.68612861  0.58799471     0.20050
C726        C  0.01772835  0.65695974  0.57163880     0.25090
C727        C  0.48895938  0.63958750  0.57071555    -0.22910
C728        C  0.46178805  0.65228852  0.58609590     0.19990
F729        F  0.43382747  0.63597671  0.58593117    -0.12870
F730        F  0.43738247  0.69323189  0.61810234    -0.15230
F731        F  0.04431806  0.64572267  0.55652005    -0.15230
F732        F  0.04759668  0.70211114  0.58889262    -0.12870
C733        C  0.48088187  0.83770877  0.39199897     0.25150
C734        C  0.50485253  0.81575914  0.39706053    -0.22960
C735        C  0.03116272  0.82386039  0.41752307     0.20050
C736        C  0.03378134  0.85407487  0.43206748     0.25090
C737        C  0.01000375  0.87661488  0.42628006    -0.22910
C738        C  0.48332975  0.86765218  0.40616439     0.19990
F739        F  0.45910414  0.88764578  0.39993791    -0.12870
F740        F  0.45475348  0.83003909  0.37317715    -0.15230
F741        F  0.05959662  0.86114786  0.45154957    -0.15230
F742        F  0.05468631  0.80281940  0.42260906    -0.12870
C743        C  0.01639711  0.68928612  0.42094129     0.25150
C744        C  0.49257779  0.69846636  0.39804352    -0.22960
C745        C  0.46577652  0.67874336  0.39313335     0.20050
C746        C  0.46311916  0.65001692  0.41054733     0.25090
C747        C  0.48741474  0.64056548  0.43265618    -0.22910
C748        C  0.01391879  0.66048538  0.43793683     0.19990
F749        F  0.03774808  0.65168003  0.45916219    -0.12870
F750        F  0.04272311  0.70760949  0.42573159    -0.15230
F751        F  0.43774728  0.63072531  0.40446364    -0.15230
F752        F  0.44231350  0.68724048  0.37132114    -0.12870
C753        C  0.15702752  0.97395397  0.56284541     0.25150
C754        C  0.12986621  0.98895849  0.57566689    -0.22960
C755        C  0.13318308  0.50794726  0.60518101     0.20050
C756        C  0.16276750  0.51411438  0.61946124     0.25090
C757        C  0.19009254  0.49943873  0.60683646    -0.22910
C758        C  0.18687208  0.97889079  0.57853720     0.19990
F759        F  0.21246333  0.96352217  0.56612398    -0.12870
F760        F  0.15495768  0.95528935  0.53473919    -0.15230
F761        F  0.16460434  0.53560425  0.64519623    -0.15230
F762        F  0.10766986  0.52160206  0.62010739    -0.12870
C763        C  0.33522976  0.50473033  0.62028935     0.25150
C764        C  0.30904109  0.52077157  0.60687627    -0.22960
C765        C  0.31338541  0.53935162  0.57730051     0.20050
C766        C  0.34333744  0.54148415  0.56140864     0.25090
C767        C  0.36944784  0.52529678  0.57506169    -0.22910
C768        C  0.36498217  0.50746664  0.60513992     0.19990
F769        F  0.38949726  0.49218711  0.62007855    -0.12870
F770        F  0.33194830  0.48540092  0.64777560    -0.15230
F771        F  0.34648426  0.55851845  0.53220570    -0.15230
F772        F  0.28878696  0.55560974  0.56393514    -0.12870
C773        C  0.13265415  0.50722523  0.39037001     0.25150
C774        C  0.12887948  0.98917628  0.42044384    -0.22960
C775        C  0.15570275  0.97411373  0.43398040     0.20050
C776        C  0.18573137  0.97829637  0.41865897     0.25090
C777        C  0.18953271  0.49780578  0.38966461    -0.22910
C778        C  0.16247269  0.51204409  0.37577208     0.19990
F779        F  0.16490266  0.53206264  0.34878761    -0.12870
F780        F  0.10741544  0.52115971  0.37525363    -0.15230
F781        F  0.21105737  0.96333112  0.43226306    -0.15230
F782        F  0.15320056  0.95635898  0.46270330    -0.12870
C783        C  0.35844325  0.54899842  0.40777412     0.25150
C784        C  0.36598789  0.52698297  0.43312719    -0.22960
C785        C  0.34340705  0.50393552  0.44243533     0.20050
C786        C  0.31420978  0.50183569  0.42553370     0.25090
C787        C  0.30701438  0.52279131  0.39878958    -0.22910
C788        C  0.32914976  0.54699626  0.39074796     0.19990
F789        F  0.32270956  0.56837035  0.36596895    -0.12870
F790        F  0.38013733  0.57123096  0.39813270    -0.15230
F791        F  0.29386884  0.97798458  0.43395449    -0.15230
F792        F  0.35015426  0.98269302  0.46726981    -0.12870
O793        O  0.91325881  0.49947218  0.44040584    -0.73740
O794        O  0.90948296  0.04816652  0.46491589    -0.52650
C795        C  0.89839798  0.02505796  0.44697354     0.79990
O796        O  0.98868589  0.42337839  0.56061334    -0.58340
O797        O  0.53605152  0.41591234  0.53359129    -0.51370
C798        C  0.51280558  0.40660470  0.55275905     0.72000
O799        O  0.91676557  0.49910729  0.56298893    -0.72900
O800        O  0.90964082  0.04664115  0.53738250    -0.53470
C801        C  0.90057853  0.02396526  0.55722001     0.78000
O802        O  0.98780817  0.42646249  0.43521181    -0.58050
O803        O  0.53464513  0.41668343  0.46186836    -0.51160
C804        C  0.51139018  0.40868974  0.44196826     0.74600
Zr805      Zr  0.96558478  0.47705939  0.44886726     2.54710
O806        O  0.92442673  0.43673917  0.44195075    -0.78610
O807        O  0.96941526  0.48390400  0.38719254    -0.92030
Zr808      Zr  0.96701466  0.47509621  0.54985624     2.64680
O809        O  0.92299180  0.43751655  0.55450896    -0.96980
O810        O  0.97318431  0.47776509  0.61170877    -0.79040
O811        O  0.94466701  0.49741410  0.50015885    -0.82400
O812        O  0.98718526  0.45391824  0.49858068    -2.17110
O813        O  0.58152956  0.01491023  0.43324018    -0.65790
O814        O  0.58979835  0.46825831  0.46022896    -0.50360
C815        C  0.59804014  0.49031316  0.43912326     0.72980
O816        O  0.51350577  0.09125337  0.56123055    -0.58700
O817        O  0.96450924  0.09831435  0.53778376    -0.50680
C818        C  0.98863661  0.10764178  0.55562809     0.74780
O819        O  0.58244067  0.01395041  0.56320350    -0.70090
O820        O  0.59067634  0.46758982  0.53567274    -0.48770
C821        C  0.59903785  0.48957380  0.55691195     0.76160
O822        O  0.51261772  0.09268506  0.44031620    -0.65420
O823        O  0.96386781  0.09884058  0.46492145    -0.52620
C824        C  0.98766165  0.10860599  0.44690977     0.74550
Zr825      Zr  0.53268593  0.04028846  0.44918414     2.77540
O826        O  0.57496527  0.07977148  0.44377936    -0.96170
O827        O  0.52515764  0.03793734  0.38749934    -0.76990
Zr828      Zr  0.53326455  0.03904097  0.55002827     2.70070
O829        O  0.57649370  0.07706062  0.55755332    -0.78240
O830        O  0.52630020  0.03459224  0.61163728    -0.97330
Zr831      Zr  0.95654228  0.05240253  0.50088600     2.21500
Zr832      Zr  0.54356236  0.46303934  0.49830609     2.11130
O833        O  0.55510994  0.01841007  0.49906975    -2.46010
O834        O  0.51235462  0.06200767  0.50018636    -0.78030
O835        O  0.52138505  0.48554327  0.44744173    -0.70230
O836        O  0.97791717  0.02990342  0.55191244    -2.31190
O837        O  0.97702840  0.03167134  0.44847500    -2.27390
O838        O  0.52262478  0.48413420  0.55044129    -0.71990
H839        H  0.98199524  0.43171033  0.49818154     0.80010
H840        H  0.96884458  0.03932130  0.57211346     0.81090
H841        H  0.57773943  0.02240725  0.49886031     0.83320
H842        H  0.96750466  0.04167704  0.42887689     0.80930
H843        H  0.96039115  0.49604311  0.61880075     0.43960
H844        H  0.53512595  0.01377489  0.61748599     0.42930
H845        H  0.58249830  0.08318011  0.53396838     0.42610
H846        H  0.59190882  0.07276596  0.45948626     0.40540
H847        H  0.53291897  0.01688523  0.38084593     0.43680
H848        H  0.95353941  0.50012466  0.38168244     0.38460
H849        H  0.91788721  0.43148889  0.46561662     0.44580
H850        H  0.92648388  0.42214070  0.53587784     0.40990
H851        H  0.58377949  0.07671961  0.42055396     0.45910
H852        H  0.96033731  0.46414296  0.37760278     0.44630
H853        H  0.92692165  0.42572334  0.57589555     0.44770
H854        H  0.54171551  0.05000876  0.62131810     0.45130
C855        C  0.99594324  0.22839287  0.37905657     0.04680
C856        C  0.00083547  0.25684057  0.39680273    -0.11470
C857        C  0.00270364  0.28533623  0.37891567     0.02180
C858        C  0.99990788  0.28529458  0.34324220    -0.10000
C859        C  0.99607018  0.25706140  0.32498938     0.04670
C860        C  0.99410921  0.22856942  0.34316609    -0.09420
H861        H  0.00196190  0.25693074  0.42449817     0.10270
H862        H  0.00026349  0.30757997  0.32972777     0.07790
H863        H  0.99156788  0.20646145  0.32949868     0.07640
C864        C  0.72123889  0.00366780  0.37356899     0.04680
C865        C  0.74825714  0.01095967  0.39343212    -0.11470
C866        C  0.77778141  0.01770746  0.37782094     0.02180
C867        C  0.77965024  0.01833979  0.34186986    -0.10000
C868        C  0.75272787  0.01207072  0.32174568     0.04670
C869        C  0.72407647  0.00369904  0.33774860    -0.09420
H870        H  0.74622819  0.01192943  0.42101894     0.10270
H871        H  0.80206460  0.02367145  0.32943715     0.07790
H872        H  0.70375522  0.99745575  0.32201675     0.07640
C873        C  0.72102782  0.00514396  0.62466008     0.04680
C874        C  0.74956632  0.01087125  0.60673010    -0.11470
C875        C  0.77784647  0.01800660  0.62465909     0.02180
C876        C  0.77697590  0.02040567  0.66056123    -0.10000
C877        C  0.74904524  0.01404144  0.67882967     0.04670
C878        C  0.72146047  0.00606013  0.66062449    -0.09420
H879        H  0.74985032  0.00960300  0.57908293     0.10270
H880        H  0.79853253  0.02622075  0.67443724     0.07790
H881        H  0.69985322  0.00098072  0.67465875     0.07640
C882        C  0.99505931  0.22924439  0.62140070     0.04680
C883        C  0.00105697  0.25654752  0.60219224    -0.11470
C884        C  0.00470554  0.28569982  0.61852543     0.02180
C885        C  0.00217644  0.28763948  0.65414682    -0.10000
C886        C  0.99662624  0.26046581  0.67386883     0.04670
C887        C  0.99302300  0.23121469  0.65717577    -0.09420
H888        H  0.00255336  0.25515199  0.57455236     0.10270
H889        H  0.00381466  0.31053389  0.66637301     0.07790
H890        H  0.98941072  0.20987081  0.67193309     0.07640
C891        C  0.75230242  0.49078393  0.11905971     0.04680
C892        C  0.75498249  0.49112066  0.15477233    -0.11470
C893        C  0.75170651  0.01930171  0.17335313     0.02180
C894        C  0.74529019  0.04726738  0.15531691    -0.10000
C895        C  0.74126910  0.04699735  0.11958425     0.04670
C896        C  0.74508937  0.01859841  0.10162049    -0.09420
H897        H  0.75851322  0.46906390  0.16807111     0.10270
H898        H  0.74361081  0.06939131  0.16897203     0.07790
H899        H  0.74167001  0.01793088  0.07415152     0.07640
O900        O  0.72711351  0.35278946  0.94064129    -0.73740
O901        O  0.77711108  0.35747168  0.96308590    -0.52650
C902        C  0.75325085  0.36805044  0.94619740     0.79990
O903        O  0.65497055  0.27512782  0.06392689    -0.58340
O904        O  0.64514072  0.22883656  0.03622380    -0.51370
C905        C  0.63739866  0.25101700  0.05710434     0.72000
O906        O  0.72832600  0.35110459  0.06126622    -0.72900
O907        O  0.77579834  0.35882789  0.03456449    -0.53470
C908        C  0.75283817  0.36808103  0.05389351     0.78000
O909        O  0.65212324  0.27702128  0.93739172    -0.58050
O910        O  0.64571771  0.22870327  0.96266748    -0.51160
C911        C  0.63613727  0.25167055  0.94397376     0.74600
Zr912      Zr  0.70414581  0.30039331  0.94941727     2.54710
O913        O  0.66338792  0.34018276  0.94398377    -0.78610
O914        O  0.70965334  0.29685511  0.88756352    -0.92030
Zr915      Zr  0.70539765  0.29956083  0.05029569     2.64680
O916        O  0.66499497  0.33991137  0.05489298    -0.96980
O917        O  0.71059310  0.29593144  0.11218660    -0.79040
O918        O  0.72682092  0.32168579  0.99986563    -0.82400
O919        O  0.68234054  0.27861679  0.99999780    -2.17110
O920        O  0.74496972  0.18399241  0.93618699    -0.65790
O921        O  0.69733485  0.17640837  0.96313763    -0.50360
C922        C  0.72032096  0.16730327  0.94383874     0.72980
O923        O  0.81986669  0.25805428  0.06174389    -0.58700
O924        O  0.82860127  0.30585804  0.03709093    -0.50680
C925        C  0.83676295  0.28295655  0.05680330     0.74780
O926        O  0.74648461  0.18322362  0.06161124    -0.70090
O927        O  0.69819565  0.17617998  0.03576585    -0.48770
C928        C  0.72149994  0.16682110  0.05454632     0.76160
O929        O  0.81903668  0.25873113  0.93470863    -0.65420
O930        O  0.82880287  0.30506797  0.96243825    -0.52620
C931        C  0.83645306  0.28299597  0.94136528     0.74550
Zr932      Zr  0.76799211  0.23553242  0.94797746     2.77540
O933        O  0.81009222  0.19744343  0.93971848    -0.96170
O934        O  0.76052884  0.24115792  0.88655512    -0.76990
Zr935      Zr  0.76889548  0.23473609  0.04931207     2.70070
O936        O  0.80949091  0.19488938  0.05552328    -0.78240
O937        O  0.76321480  0.23979137  0.11101640    -0.97330
Zr938      Zr  0.78234694  0.31130300  0.99947703     2.21500
Zr939      Zr  0.69186704  0.22307721  0.99955146     2.11130
O940        O  0.74745618  0.21304007  0.99868319    -2.46010
O941        O  0.79131218  0.25594002  0.99865502    -0.78030
O942        O  0.71281580  0.24526899  0.94771435    -0.70230
O943        O  0.76046137  0.28967241  0.05104210    -2.30870
O944        O  0.75937719  0.29048947  0.94782173    -2.27390
O945        O  0.71384331  0.24448039  0.05119018    -0.71990
H946        H  0.65989269  0.28288276  0.00040513     0.80010
H947        H  0.77024417  0.29904536  0.07103404     0.81090
H948        H  0.75177189  0.19077742  0.99857012     0.83320
H949        H  0.76893261  0.30014265  0.92788709     0.80930
H950        H  0.72790647  0.31099037  0.11810087     0.43960
H951        H  0.74205669  0.23046611  0.11609734     0.42930
H952        H  0.81280298  0.18690441  0.03200555     0.42610
H953        H  0.80652144  0.18134372  0.95766750     0.40540
H954        H  0.73992414  0.23051038  0.88180295     0.43680
H955        H  0.72645220  0.31250594  0.88176972     0.38460
H956        H  0.65945440  0.34717668  0.96776017     0.44580
H957        H  0.64810586  0.33342006  0.03861869     0.40990
H958        H  0.80496515  0.18658084  0.91794170     0.45910
H959        H  0.68987901  0.30607318  0.87852655     0.44630
H960        H  0.65544524  0.33691136  0.07781771     0.44770
H961        H  0.77844265  0.22453047  0.12050987     0.45130
C962        C  0.95844052  0.27293474  0.12482467     0.04680
C963        C  0.95954263  0.27145368  0.16076657    -0.11470
C964        C  0.98736455  0.26290055  0.17759587     0.02180
C965        C  0.51443811  0.25637419  0.15850494    -0.10000
C966        C  0.51468071  0.25989411  0.12284879     0.04670
C967        C  0.98636559  0.26769753  0.10589407    -0.09420
H968        H  0.93860259  0.27673940  0.17571295     0.10270
H969        H  0.53580598  0.24920742  0.17170149     0.07790
H970        H  0.98603797  0.26957321  0.07827763     0.07640
C971        C  0.74963647  0.49021886  0.88190296     0.04680
C972        C  0.75166373  0.49038911  0.84608189    -0.11470
C973        C  0.74547039  0.01785835  0.82730533     0.02180
C974        C  0.73751697  0.04556071  0.84486162    -0.10000
C975        C  0.73604123  0.04598843  0.88072925     0.04670
C976        C  0.74221603  0.01827856  0.89905027    -0.09420
H977        H  0.75739691  0.46884587  0.83269789     0.10270
H978        H  0.73258700  0.06685006  0.83065708     0.07790
H979        H  0.74100258  0.01853480  0.92673418     0.07640
C980        C  0.95873442  0.27346342  0.87419289     0.04680
C981        C  0.96126734  0.27580069  0.83842072    -0.11470
C982        C  0.98972806  0.26893549  0.82165468     0.02180
C983        C  0.51668893  0.26193540  0.84106818    -0.10000
C984        C  0.51510334  0.26034745  0.87691109     0.04670
C985        C  0.98580284  0.26541897  0.89323022    -0.09420
H986        H  0.94092085  0.28269172  0.82335779     0.10270
H987        H  0.53897030  0.25769299  0.82814787     0.07790
H988        H  0.98402582  0.26261523  0.92068855     0.07640
C989        C  0.70246932  0.09370901  0.89194588     0.25150
C990        C  0.72961004  0.07576673  0.89917988    -0.22960
C991        C  0.75166161  0.08711360  0.92329607     0.20050
C992        C  0.74740181  0.11630093  0.93886142     0.25090
C993        C  0.72080203  0.13464323  0.93110291    -0.22910
C994        C  0.69796718  0.12293175  0.90805607     0.19990
F995        F  0.67240027  0.14048846  0.89974954    -0.12870
F996        F  0.68062412  0.08311679  0.86896943    -0.15230
F997        F  0.77001056  0.12729333  0.96075005    -0.15230
F998        F  0.77834186  0.07072371  0.93038938    -0.12870
C999        C  0.77932235  0.40997938  0.91026463     0.25150
C1000       C  0.75496056  0.40040959  0.93261755    -0.22960
C1001       C  0.73029095  0.42126731  0.94002992     0.20050
C1002       C  0.72928609  0.45083979  0.92450295     0.25090
C1003       C  0.75292286  0.46016950  0.90103339    -0.22910
C1004       C  0.77826126  0.43961296  0.89443990     0.19990
F1005       F  0.80175442  0.44804704  0.87235882    -0.12870
F1006       F  0.80318410  0.39003850  0.90241178    -0.15230
F1007       F  0.70418543  0.46965157  0.93106831    -0.15230
F1008       F  0.70674753  0.41270005  0.96201037    -0.12870
C1009       C  0.89353874  0.30261773  0.06514679     0.25150
C1010       C  0.86750649  0.28376662  0.07560460    -0.22960
C1011       C  0.87167130  0.26291608  0.10338599     0.20050
C1012       C  0.90117548  0.25942642  0.11857650     0.25090
C1013       C  0.92738954  0.27752827  0.10770831    -0.22910
C1014       C  0.92329500  0.29950221  0.08110204     0.19990
F1015       F  0.94796750  0.31805226  0.07072470    -0.12870
F1016       F  0.89047291  0.32349723  0.03915039    -0.15230
F1017       F  0.90424490  0.23728580  0.14340078    -0.15230
F1018       F  0.84719263  0.24524412  0.11597901    -0.12870
C1019       C  0.54911880  0.23835420  0.07536406     0.25150
C1020       C  0.54544078  0.25727448  0.10467525    -0.22960
C1021       C  0.57215574  0.27294685  0.11832982     0.20050
C1022       C  0.60197839  0.26902871  0.10405738     0.25090
C1023       C  0.60599790  0.25053312  0.07439128    -0.22910
C1024       C  0.57918545  0.23515679  0.06016079     0.19990
F1025       F  0.58182967  0.21782000  0.03113751    -0.12870
F1026       F  0.52378949  0.22270652  0.06173127    -0.15230
F1027       F  0.62698635  0.28382464  0.11947091    -0.15230
F1028       F  0.56938655  0.29269690  0.14551705    -0.12870
C1029       C  0.89469567  0.29809498  0.93775393     0.25150
C1030       C  0.86736864  0.28423140  0.92309731    -0.22960
C1031       C  0.87031803  0.26811439  0.89171415     0.20050
C1032       C  0.89984890  0.26442939  0.87638444     0.25090
C1033       C  0.92736631  0.27785599  0.89109230    -0.22910
C1034       C  0.92440951  0.29509221  0.92181010     0.19990
F1035       F  0.95022860  0.30905215  0.93646606    -0.12870
F1036       F  0.89293962  0.31347171  0.96810525    -0.15230
F1037       F  0.90151200  0.24639684  0.84774048    -0.15230
F1038       F  0.84451493  0.25521066  0.87586778    -0.12870
C1039       C  0.58150560  0.27213002  0.94124620     0.25150
C1040       C  0.60379941  0.25015319  0.93001895    -0.22960
C1041       C  0.59590253  0.22946679  0.90330498     0.20050
C1042       C  0.56639153  0.23165494  0.88697131     0.25090
C1043       C  0.54446860  0.25478039  0.89706945    -0.22910
C1044       C  0.55210614  0.27446204  0.92498987     0.19990
F1045       F  0.53199269  0.29734591  0.93524483    -0.12870
F1046       F  0.58872034  0.29211228  0.96736359    -0.15230
F1047       F  0.55952158  0.21156078  0.86087380    -0.15230
F1048       F  0.61738379  0.20834321  0.89188165    -0.12870
C1049       C  0.75236383  0.08607784  0.07303363     0.25150
C1050       C  0.73357426  0.07646003  0.10091350    -0.22960
C1051       C  0.70813595  0.09561112  0.11121906     0.20050
C1052       C  0.70231309  0.12429272  0.09452290     0.25090
C1053       C  0.72194405  0.13422206  0.06750530    -0.22910
C1054       C  0.74672627  0.11470881  0.05672985     0.19990
F1055       F  0.76659764  0.12425472  0.03133217    -0.12870
F1056       F  0.77745468  0.06864676  0.06282874    -0.15230
F1057       F  0.67880196  0.14314142  0.10597932    -0.15230
F1058       F  0.68923497  0.08674963  0.13773622    -0.12870
C1059       C  0.78155500  0.44809457  0.08805074     0.25150
C1060       C  0.75304327  0.46047014  0.10058761    -0.22960
C1061       C  0.72478919  0.44324708  0.09661762     0.20050
C1062       C  0.72482270  0.41378498  0.08086226     0.25090
C1063       C  0.75342779  0.40049601  0.06883941    -0.22910
C1064       C  0.78179294  0.41833599  0.07217189     0.19990
F1065       F  0.80981694  0.40674507  0.06098406    -0.12870
F1066       F  0.80916873  0.46464116  0.09167012    -0.15230
F1067       F  0.69649844  0.39845269  0.07737524    -0.15230
F1068       F  0.69701120  0.45490761  0.10851501    -0.12870
C1069       C  0.97028158  0.24712168  0.72987832     0.25150
C1070       C  0.99464827  0.26285567  0.71176307    -0.22960
C1071       C  0.51699830  0.28122889  0.73014785     0.20050
C1072       C  0.51499044  0.28381306  0.76572708     0.25090
C1073       C  0.99093898  0.26770676  0.78378045    -0.22910
C1074       C  0.96858877  0.24935903  0.76551078     0.19990
F1075       F  0.94549843  0.23290605  0.78226046    -0.12870
F1076       F  0.94772535  0.22993947  0.71310009    -0.15230
F1077       F  0.53643074  0.30233684  0.78253289    -0.15230
F1078       F  0.54132775  0.29616196  0.71379029    -0.12870
C1079       C  0.76377202  0.03982027  0.73502248     0.25150
C1080       C  0.74859499  0.01508417  0.71694725    -0.22960
C1081       C  0.73253144  0.99138530  0.73564844     0.20050
C1082       C  0.73100212  0.99276728  0.77127461     0.25090
C1083       C  0.74649328  0.01718769  0.78932466    -0.22910
C1084       C  0.76306021  0.04062345  0.77082947     0.19990
F1085       F  0.77905375  0.06406719  0.78741698    -0.12870
F1086       F  0.77878653  0.06364909  0.71810885    -0.15230
F1087       F  0.71380182  0.47037236  0.78811129    -0.15230
F1088       F  0.71870098  0.96636970  0.71955637    -0.12870
C1089       C  0.73141953  0.03593258  0.23127939     0.25150
C1090       C  0.75346084  0.01901609  0.21155081    -0.22960
C1091       C  0.77626541  0.50074695  0.22874913     0.20050
C1092       C  0.77627847  0.49864361  0.26452022     0.25090
C1093       C  0.75389536  0.01513320  0.28393900    -0.22910
C1094       C  0.73188308  0.03423243  0.26699015     0.19990
F1095       F  0.71066942  0.05133052  0.28512398    -0.12870
F1096       F  0.70848201  0.05322514  0.21612201    -0.15230
F1097       F  0.79755895  0.47968462  0.28013053    -0.15230
F1098       F  0.79872715  0.48494209  0.21100664    -0.12870
C1099       C  0.96825859  0.24173299  0.23382735     0.25150
C1100       C  0.98885590  0.26159626  0.21526325    -0.22960
C1101       C  0.51190449  0.27958217  0.23272085     0.20050
C1102       C  0.51468453  0.27748750  0.26815776     0.25090
C1103       C  0.99393039  0.25783922  0.28706922    -0.22910
C1104       C  0.97064558  0.23994963  0.26947756     0.19990
F1105       F  0.94972035  0.22127539  0.28675356    -0.12870
F1106       F  0.94622962  0.22364074  0.21735430    -0.15230
F1107       F  0.53813668  0.29435753  0.28386700    -0.15230
F1108       F  0.53161446  0.29949685  0.21537848    -0.12870
C1109       C  0.98078451  0.32870106  0.58522201     0.25150
C1110       C  0.00806375  0.31477449  0.59838016    -0.22960
C1111       C  0.53774961  0.32981049  0.59420119     0.20050
C1112       C  0.53990218  0.35924776  0.57794282     0.25090
C1113       C  0.51223748  0.37402796  0.56625572    -0.22910
C1114       C  0.98279651  0.35795966  0.56924497     0.19990
F1115       F  0.95573239  0.37067407  0.55685226    -0.12870
F1116       F  0.95194547  0.31437572  0.58896177    -0.15230
F1117       F  0.56864602  0.37387948  0.57514498    -0.15230
F1118       F  0.56441216  0.31630840  0.60661247    -0.12870
C1119       C  0.96368471  0.18147681  0.60293468     0.25150
C1120       C  0.99258072  0.19846693  0.60399621    -0.22960
C1121       C  0.51943851  0.18612886  0.58799346     0.20050
C1122       C  0.51772622  0.15696023  0.57163714     0.25090
C1123       C  0.98895714  0.13958815  0.57071441    -0.22910
C1124       C  0.96178623  0.15228917  0.58609559     0.19990
F1125       F  0.93382555  0.13597751  0.58593135    -0.12870
F1126       F  0.93738158  0.19323238  0.61810314    -0.15230
F1127       F  0.54431556  0.14572319  0.55651758    -0.15230
F1128       F  0.54759526  0.20211117  0.58889091    -0.12870
C1129       C  0.98088453  0.33770870  0.39200039     0.25150
C1130       C  0.00485528  0.31575904  0.39706112    -0.22960
C1131       C  0.53116617  0.32386033  0.41752259     0.20050
C1132       C  0.53378542  0.35407493  0.43206666     0.25090
C1133       C  0.51000776  0.37661503  0.42627993    -0.22910
C1134       C  0.98333299  0.36765220  0.40616548     0.19990
F1135       F  0.95910712  0.38764572  0.39993994    -0.12870
F1136       F  0.95475550  0.33003899  0.37317960    -0.15230
F1137       F  0.55960142  0.36114803  0.45154762    -0.15230
F1138       F  0.55468982  0.30281925  0.42260783    -0.12870
C1139       C  0.51639536  0.18928550  0.42094207     0.25150
C1140       C  0.99257660  0.19846651  0.39804401    -0.22960
C1141       C  0.96577484  0.17874423  0.39313340     0.20050
C1142       C  0.96311652  0.15001771  0.41054712     0.25090
C1143       C  0.98741161  0.14056548  0.43265619    -0.22910
C1144       C  0.51391606  0.16048471  0.43793738     0.19990
F1145       F  0.53774490  0.15167857  0.45916293    -0.12870
F1146       F  0.54272184  0.20760809  0.42573279    -0.15230
F1147       F  0.93774424  0.13072676  0.40446292    -0.15230
F1148       F  0.94231229  0.18724210  0.37132095    -0.12870
C1149       C  0.65703061  0.47395395  0.56284671     0.25150
C1150       C  0.62986934  0.48895855  0.57566821    -0.22960
C1151       C  0.63317976  0.00794674  0.60518004     0.20050
C1152       C  0.66276407  0.01411357  0.61946067     0.25090
C1153       C  0.69008918  0.99943805  0.60683589    -0.22910
C1154       C  0.68687528  0.47889109  0.57853813     0.19990
F1155       F  0.71246648  0.46352235  0.56612495    -0.12870
F1156       F  0.65496060  0.45528888  0.53474086    -0.15230
F1157       F  0.66460073  0.03560313  0.64519598    -0.15230
F1158       F  0.60766643  0.02160142  0.62010635    -0.12870
C1159       C  0.83522641  0.00472995  0.62028942     0.25150
C1160       C  0.80903773  0.02077107  0.60687618    -0.22960
C1161       C  0.81338216  0.03935129  0.57730056     0.20050
C1162       C  0.84333431  0.04148413  0.56140901     0.25090
C1163       C  0.86944473  0.02529692  0.57506225    -0.22910
C1164       C  0.86497894  0.00746658  0.60514033     0.19990
F1165       F  0.88949402  0.99218720  0.62007914    -0.12870
F1166       F  0.83194486  0.98540040  0.64777553    -0.15230
F1167       F  0.84648123  0.05851857  0.53220619    -0.15230
F1168       F  0.78878369  0.05560930  0.56393507    -0.12870
C1169       C  0.63264948  0.00722392  0.39036814     0.25150
C1170       C  0.62888434  0.48917750  0.42044566    -0.22960
C1171       C  0.65570770  0.47411493  0.43398199     0.20050
C1172       C  0.68573620  0.47829745  0.41866018     0.25090
C1173       C  0.68952814  0.99780484  0.38966354    -0.22910
C1174       C  0.66246817  0.01204292  0.37577058     0.19990
F1175       F  0.66489831  0.03206147  0.34878613    -0.12870
F1176       F  0.60741084  0.02115824  0.37525145    -0.15230
F1177       F  0.71106231  0.46333217  0.43226400    -0.15230
F1178       F  0.65320571  0.45636026  0.46270495    -0.12870
C1179       C  0.85843750  0.04899907  0.40777830     0.25150
C1180       C  0.86598259  0.02698236  0.43312993    -0.22960
C1181       C  0.84340215  0.00393398  0.44243658     0.20050
C1182       C  0.81420497  0.00183447  0.42553471     0.25090
C1183       C  0.80700935  0.02279122  0.39879175    -0.22910
C1184       C  0.82914420  0.04699709  0.39075177     0.19990
F1185       F  0.82270367  0.06837215  0.36597386    -0.12870
F1186       F  0.88013110  0.07123265  0.39813840    -0.15230
F1187       F  0.79387331  0.47798655  0.43395498    -0.15230
F1188       F  0.85015887  0.48269573  0.46726982    -0.12870
O1189       O  0.91325315  0.99947099  0.44040903    -0.73740
O1190       O  0.90948730  0.54816672  0.46491478    -0.52650
C1191       C  0.89840313  0.52505870  0.44697107     0.79990
O1192       O  0.98868342  0.92337917  0.56061474    -0.58340
O1193       O  0.53604833  0.91591270  0.53359139    -0.51370
C1194       C  0.51280284  0.90660529  0.55275987     0.72000
O1195       O  0.91676286  0.99910794  0.56298997    -0.72900
O1196       O  0.90964402  0.54664076  0.53738187    -0.53470
C1197       C  0.90058151  0.52396482  0.55721921     0.78000
O1198       O  0.98780300  0.92646170  0.43521315    -0.58050
O1199       O  0.53464089  0.91668347  0.46186821    -0.51160
C1200       C  0.51138559  0.90868942  0.44196878     0.74600
Zr1201     Zr  0.96557949  0.97705856  0.44886884     2.54710
O1202       O  0.92442174  0.93673768  0.44195450    -0.78610
O1203       O  0.96940770  0.98390234  0.38719387    -0.92030
Zr1204     Zr  0.96701229  0.97509725  0.54985794     2.64680
O1205       O  0.92298968  0.93751782  0.55451574    -0.96980
O1206       O  0.97318451  0.97776880  0.61171002    -0.79040
O1207       O  0.94466341  0.99741424  0.50016070    -0.82400
O1208       O  0.98718136  0.95391833  0.49858209    -2.17110
O1209       O  0.58153477  0.51491160  0.43324261    -0.65790
O1210       O  0.58979387  0.96825770  0.46022780    -0.50360
C1211       C  0.59803524  0.99031209  0.43912138     0.72980
O1212       O  0.51350816  0.59125259  0.56123229    -0.58700
O1213       O  0.96451217  0.59831386  0.53778425    -0.50680
C1214       C  0.98863916  0.60764113  0.55562924     0.74780
O1215       O  0.58244321  0.51394968  0.56320544    -0.70090
O1216       O  0.59067290  0.96758994  0.53567164    -0.48770
C1217       C  0.59903486  0.98957413  0.55691040     0.76160
O1218       O  0.51262203  0.59268577  0.44031734    -0.65420
O1219       O  0.96387158  0.59884049  0.46492166    -0.52620
C1220       C  0.98766550  0.60860623  0.44691031     0.74550
Zr1221     Zr  0.53269112  0.54028963  0.44918637     2.77540
O1222       O  0.57497071  0.57977291  0.44378636    -0.96170
O1223       O  0.52516572  0.53794049  0.38750106    -0.76990
Zr1224     Zr  0.53326694  0.53904001  0.55003033     2.70070
O1225       O  0.57649560  0.57705946  0.55755967    -0.78240
O1226       O  0.52630021  0.53458909  0.61163885    -0.97330
Zr1227     Zr  0.95654589  0.55240238  0.50088599     2.21500
Zr1228     Zr  0.54355844  0.96303937  0.49830564     2.11130
O1229       O  0.55511381  0.51841011  0.49907200    -2.46010
O1230       O  0.51235828  0.56200786  0.50018838    -0.78030
O1231       O  0.52137974  0.98554216  0.44744143    -0.70230
O1232       O  0.97791939  0.52990246  0.55191278    -2.31190
O1233       O  0.97703344  0.53167240  0.44847488    -2.27390
O1234       O  0.52262236  0.98413522  0.55044099    -0.71990
H1235       H  0.98199131  0.93171033  0.49818336     0.80010
H1236       H  0.96884641  0.53931984  0.57211347     0.81090
H1237       H  0.57774318  0.52240732  0.49886316     0.83320
H1238       H  0.96751040  0.54167825  0.42887703     0.80930
H1239       H  0.96038848  0.99604477  0.61880213     0.43960
H1240       H  0.53512646  0.51377188  0.61748721     0.42930
H1241       H  0.58250210  0.58317910  0.53397533     0.42610
H1242       H  0.59191361  0.57276636  0.45949351     0.40540
H1243       H  0.53292529  0.51688773  0.38084758     0.43680
H1244       H  0.95353069  0.00012197  0.38168403     0.38460
H1245       H  0.91788398  0.93148669  0.46562075     0.44580
H1246       H  0.92647999  0.92214174  0.53588443     0.40990
H1247       H  0.58378584  0.57672237  0.42056114     0.45910
H1248       H  0.96033062  0.96414064  0.37760481     0.44630
H1249       H  0.92692131  0.92572481  0.57590207     0.44770
H1250       H  0.54171460  0.55000583  0.62132096     0.45130
C1251       C  0.99594327  0.72839275  0.37905603     0.04680
C1252       C  0.00083437  0.75684062  0.39680217    -0.11470
C1253       C  0.00270161  0.78533630  0.37891508     0.02180
C1254       C  0.99990612  0.78529449  0.34324158    -0.10000
C1255       C  0.99606946  0.75706116  0.32498883     0.04670
C1256       C  0.99410933  0.72856917  0.34316556    -0.09420
H1257       H  0.00196075  0.75693083  0.42449761     0.10270
H1258       H  0.00026124  0.80757983  0.32972705     0.07790
H1259       H  0.99156877  0.70646111  0.32949818     0.07640
C1260       C  0.72124319  0.50366819  0.37356923     0.04680
C1261       C  0.74826190  0.51096016  0.39343156    -0.11470
C1262       C  0.77778594  0.51770735  0.37781954     0.02180
C1263       C  0.77965399  0.51833903  0.34186839    -0.10000
C1264       C  0.75273109  0.51207009  0.32174499     0.04670
C1265       C  0.72407998  0.50369888  0.33774877    -0.09420
H1266       H  0.74623344  0.51193049  0.42101840     0.10270
H1267       H  0.80206812  0.52367019  0.32943498     0.07790
H1268       H  0.70375829  0.49745564  0.32201755     0.07640
C1269       C  0.72103121  0.50514470  0.62466049     0.04680
C1270       C  0.74956968  0.51087191  0.60673043    -0.11470
C1271       C  0.77784989  0.51800722  0.62465935     0.02180
C1272       C  0.77697941  0.52040624  0.66056152    -0.10000
C1273       C  0.74904877  0.51404202  0.67883001     0.04670
C1274       C  0.72146393  0.50606088  0.66062488    -0.09420
H1275       H  0.74985360  0.50960359  0.57908327     0.10270
H1276       H  0.79853608  0.52622126  0.67443750     0.07790
H1277       H  0.69985668  0.50098156  0.67465916     0.07640
C1278       C  0.99505985  0.72924426  0.62140094     0.04680
C1279       C  0.00105683  0.75654750  0.60219240    -0.11470
C1280       C  0.00470467  0.78569991  0.61852556     0.02180
C1281       C  0.00217559  0.78763953  0.65414695    -0.10000
C1282       C  0.99662609  0.76046578  0.67386899     0.04670
C1283       C  0.99302351  0.73121457  0.65717600    -0.09420
H1284       H  0.00255325  0.75515196  0.57455252     0.10270
H1285       H  0.00381334  0.81053398  0.66637314     0.07790
H1286       H  0.98941170  0.70987065  0.67193337     0.07640
C1287       C  0.75230258  0.99078392  0.11906050     0.04680
C1288       C  0.75498229  0.99112082  0.15477317    -0.11470
C1289       C  0.75170692  0.51930146  0.17335247     0.02180
C1290       C  0.74529037  0.54726721  0.15531651    -0.10000
C1291       C  0.74126897  0.54699734  0.11958388     0.04670
C1292       C  0.74508904  0.51859848  0.10161992    -0.09420
H1293       H  0.75851286  0.96906412  0.16807213     0.10270
H1294       H  0.74361114  0.56939108  0.16897177     0.07790
H1295       H  0.74166947  0.51793109  0.07415098     0.07640
O1296       O  0.72711352  0.85278955  0.94064114    -0.73740
O1297       O  0.77711104  0.85747188  0.96308585    -0.52650
C1298       C  0.75325082  0.86805057  0.94619728     0.79990
O1299       O  0.65497051  0.77512793  0.06392673    -0.58340
O1300       O  0.64514077  0.72883664  0.03622364    -0.51370
C1301       C  0.63739867  0.75101708  0.05710416     0.72000
O1302       O  0.72832603  0.85110465  0.06126648    -0.72900
O1303       O  0.77579832  0.85882805  0.03456467    -0.53470
C1304       C  0.75283821  0.86808111  0.05389383     0.78000
O1305       O  0.65212324  0.77702139  0.93739166    -0.58050
O1306       O  0.64571776  0.72870335  0.96266737    -0.51160
C1307       C  0.63613729  0.75167064  0.94397368     0.74600
Zr1308     Zr  0.70414580  0.80039343  0.94941719     2.54710
O1309       O  0.66338791  0.84018287  0.94398368    -0.78610
O1310       O  0.70965332  0.79685522  0.88756343    -0.92030
Zr1311     Zr  0.70539760  0.79956098  0.05029560     2.64680
O1312       O  0.66499493  0.83991155  0.05489272    -0.96980
O1313       O  0.71059285  0.79593152  0.11218653    -0.79040
O1314       O  0.72682086  0.82168598  0.99986556    -0.82400
O1315       O  0.68234054  0.77861690  0.99999770    -2.17110
O1316       O  0.74496984  0.68399254  0.93618693    -0.65790
O1317       O  0.69733498  0.67640845  0.96313755    -0.50360
C1318       C  0.72032111  0.66730336  0.94383868     0.72980
O1319       O  0.81986664  0.75805448  0.06174375    -0.58700
O1320       O  0.82860122  0.80585827  0.03709086    -0.50680
C1321       C  0.83676291  0.78295675  0.05680318     0.74780
O1322       O  0.74648456  0.68322383  0.06161127    -0.70090
O1323       O  0.69819565  0.67618013  0.03576580    -0.48770
C1324       C  0.72149990  0.66682130  0.05454634     0.76160
O1325       O  0.81903670  0.75873132  0.93470868    -0.65420
O1326       O  0.82880285  0.80506819  0.96243827    -0.52620
C1327       C  0.83645307  0.78299617  0.94136532     0.74550
Zr1328     Zr  0.76799214  0.73553259  0.94797743     2.77540
O1329       O  0.81009230  0.69744365  0.93971844    -0.96170
O1330       O  0.76052890  0.74115812  0.88655508    -0.76990
Zr1331     Zr  0.76889545  0.73473627  0.04931202     2.70070
O1332       O  0.80949087  0.69488957  0.05552327    -0.78240
O1333       O  0.76321481  0.73979160  0.11101636    -0.97330
Zr1334     Zr  0.78234689  0.81130323  0.99947702     2.21500
Zr1335     Zr  0.69186709  0.72307732  0.99955135     2.11130
O1336       O  0.74745622  0.71304021  0.99868314    -2.46010
O1337       O  0.79131215  0.75594025  0.99865500    -0.78030
O1338       O  0.71281583  0.74526912  0.94771425    -0.70230
O1339       O  0.76046131  0.78967259  0.05104205    -2.30870
O1340       O  0.75937719  0.79048964  0.94782170    -2.27390
O1341       O  0.71384328  0.74448054  0.05119009    -0.71990
H1342       H  0.65989269  0.78288286  0.00040501     0.80010
H1343       H  0.77024410  0.79904553  0.07103401     0.81090
H1344       H  0.75177195  0.69077756  0.99857009     0.83320
H1345       H  0.76893262  0.80014283  0.92788707     0.80930
H1346       H  0.72790646  0.81099015  0.11810084     0.43960
H1347       H  0.74205668  0.73046641  0.11609732     0.42930
H1348       H  0.81280291  0.68690456  0.03200555     0.42610
H1349       H  0.80652151  0.68134391  0.95766743     0.40540
H1350       H  0.73992424  0.73051050  0.88180288     0.43680
H1351       H  0.72645225  0.81250597  0.88176964     0.38460
H1352       H  0.65945443  0.84717684  0.96776007     0.44580
H1353       H  0.64810585  0.83342022  0.03861841     0.40990
H1354       H  0.80496526  0.68658109  0.91794164     0.45910
H1355       H  0.68987903  0.80607338  0.87852647     0.44630
H1356       H  0.65544516  0.83691158  0.07781743     0.44770
H1357       H  0.77844262  0.72453065  0.12050983     0.45130
C1358       C  0.95844050  0.77293463  0.12482429     0.04680
C1359       C  0.95954259  0.77145344  0.16076617    -0.11470
C1360       C  0.98736449  0.76290021  0.17759543     0.02180
C1361       C  0.51443807  0.75637393  0.15850451    -0.10000
C1362       C  0.51468068  0.75989399  0.12284839     0.04670
C1363       C  0.98636557  0.76769748  0.10589368    -0.09420
H1364       H  0.93860256  0.77673912  0.17571258     0.10270
H1365       H  0.53580594  0.74920714  0.17170106     0.07790
H1366       H  0.98603796  0.76957326  0.07827724     0.07640
C1367       C  0.74963571  0.99021879  0.88190263     0.04680
C1368       C  0.75166231  0.99038895  0.84608153    -0.11470
C1369       C  0.74547218  0.51785855  0.82730563     0.02180
C1370       C  0.73751843  0.54556087  0.84486182    -0.10000
C1371       C  0.73604202  0.54598850  0.88072941     0.04670
C1372       C  0.74221647  0.51827859  0.89905050    -0.09420
H1373       H  0.75739524  0.96884568  0.83269745     0.10270
H1374       H  0.73258874  0.56685027  0.83065722     0.07790
H1375       H  0.74100256  0.51853478  0.92673439     0.07640
C1376       C  0.95873441  0.77346347  0.87419297     0.04680
C1377       C  0.96126732  0.77580071  0.83842081    -0.11470
C1378       C  0.98972804  0.76893553  0.82165477     0.02180
C1379       C  0.51668891  0.76193547  0.84106825    -0.10000
C1380       C  0.51510332  0.76034751  0.87691116     0.04670
C1381       C  0.98580284  0.76541903  0.89323030    -0.09420
H1382       H  0.94092082  0.78269171  0.82335787     0.10270
H1383       H  0.53897028  0.75769309  0.82814793     0.07790
H1384       H  0.98402582  0.76261529  0.92068863     0.07640
C1385       C  0.70246993  0.59370904  0.89194571     0.25150
C1386       C  0.72961060  0.57576679  0.89917998    -0.22960
C1387       C  0.75166195  0.58711368  0.92329638     0.20050
C1388       C  0.74740201  0.61630104  0.93886166     0.25090
C1389       C  0.72080227  0.63464330  0.93110291    -0.22910
C1390       C  0.69796762  0.62293179  0.90805585     0.19990
F1391       F  0.67240076  0.64048846  0.89974908    -0.12870
F1392       F  0.68062496  0.58311680  0.86896903    -0.15230
F1393       F  0.77001061  0.62729350  0.96075042    -0.15230
F1394       F  0.77834216  0.57072381  0.93038996    -0.12870
C1395       C  0.77932199  0.90997943  0.91026412     0.25150
C1396       C  0.75496047  0.90040971  0.93261742    -0.22960
C1397       C  0.73029096  0.92126744  0.94003009     0.20050
C1398       C  0.72928590  0.95083986  0.92450304     0.25090
C1399       C  0.75292237  0.96016950  0.90103309    -0.22910
C1400       C  0.77826069  0.93961295  0.89443930     0.19990
F1401       F  0.80175356  0.94804697  0.87235783    -0.12870
F1402       F  0.80318363  0.89003851  0.90241099    -0.15230
F1403       F  0.70418531  0.96965167  0.93106869    -0.15230
F1404       F  0.70674778  0.91270022  0.96201086    -0.12870
C1405       C  0.89353870  0.80261788  0.06514663     0.25150
C1406       C  0.86750645  0.78376677  0.07560443    -0.22960
C1407       C  0.87167127  0.76291614  0.10338574     0.20050
C1408       C  0.90117547  0.75942637  0.11857615     0.25090
C1409       C  0.92738953  0.77752823  0.10770797    -0.22910
C1410       C  0.92329498  0.79950227  0.08110181     0.19990
F1411       F  0.94796748  0.81805234  0.07072450    -0.12870
F1412       F  0.89047285  0.82349748  0.03915032    -0.15230
F1413       F  0.90424491  0.73728565  0.14340032    -0.15230
F1414       F  0.84719260  0.74524419  0.11597878    -0.12870
C1415       C  0.54911882  0.73835421  0.07536366     0.25150
C1416       C  0.54544075  0.75727446  0.10467488    -0.22960
C1417       C  0.57215567  0.77294684  0.11832952     0.20050
C1418       C  0.60197833  0.76902874  0.10405714     0.25090
C1419       C  0.60599790  0.75053317  0.07439103    -0.22910
C1420       C  0.57918549  0.73515684  0.06016045     0.19990
F1421       F  0.58182977  0.71782009  0.03113715    -0.12870
F1422       F  0.52378954  0.72270653  0.06173082    -0.15230
F1423       F  0.62698626  0.78382466  0.11947073    -0.15230
F1424       F  0.56938641  0.79269684  0.14551677    -0.12870
C1425       C  0.89469568  0.79809514  0.93775399     0.25150
C1426       C  0.86736864  0.78423159  0.92309736    -0.22960
C1427       C  0.87031803  0.76811455  0.89171421     0.20050
C1428       C  0.89984889  0.76442949  0.87638453     0.25090
C1429       C  0.92736631  0.77785607  0.89109239    -0.22910
C1430       C  0.92440953  0.79509231  0.92181017     0.19990
F1431       F  0.95022863  0.80905223  0.93646614    -0.12870
F1432       F  0.89293964  0.81347189  0.96810530    -0.15230
F1433       F  0.90151198  0.74639690  0.84774060    -0.15230
F1434       F  0.84451491  0.75521085  0.87586784    -0.12870
C1435       C  0.58150562  0.77213008  0.94124621     0.25150
C1436       C  0.60379943  0.75015327  0.93001891    -0.22960
C1437       C  0.59590253  0.72946687  0.90330496     0.20050
C1438       C  0.56639151  0.73165500  0.88697133     0.25090
C1439       C  0.54446859  0.75478045  0.89706950    -0.22910
C1440       C  0.55210615  0.77446210  0.92498992     0.19990
F1441       F  0.53199270  0.79734595  0.93524490    -0.12870
F1442       F  0.58872038  0.79211235  0.96736359    -0.15230
F1443       F  0.55952154  0.71156084  0.86087383    -0.15230
F1444       F  0.61738379  0.70834329  0.89188161    -0.12870
C1445       C  0.75236377  0.58607800  0.07303349     0.25150
C1446       C  0.73357419  0.57646013  0.10091332    -0.22960
C1447       C  0.70813591  0.59561122  0.11121898     0.20050
C1448       C  0.70231306  0.62429287  0.09452289     0.25090
C1449       C  0.72194403  0.63422225  0.06750531    -0.22910
C1450       C  0.74672624  0.61470903  0.05672982     0.19990
F1451       F  0.76659765  0.62425500  0.03133219    -0.12870
F1452       F  0.77745460  0.56864692  0.06282854    -0.15230
F1453       F  0.67880194  0.64314156  0.10597937    -0.15230
F1454       F  0.68923495  0.58674968  0.13773612    -0.12870
C1455       C  0.78155514  0.94809454  0.08805144     0.25150
C1456       C  0.75304346  0.96047004  0.10058854    -0.22960
C1457       C  0.72478939  0.94324693  0.09661867     0.20050
C1458       C  0.72482285  0.91378489  0.08086313     0.25090
C1459       C  0.75342789  0.90049602  0.06884000    -0.22910
C1460       C  0.78179303  0.91833602  0.07217242     0.19990
F1461       F  0.80981699  0.90674519  0.06098435    -0.12870
F1462       F  0.80916886  0.96464118  0.09167069    -0.15230
F1463       F  0.69649859  0.89845259  0.07737619    -0.15230
F1464       F  0.69701144  0.95490738  0.10851623    -0.12870
C1465       C  0.97028168  0.74712139  0.72987850     0.25150
C1466       C  0.99464817  0.76285563  0.71176321    -0.22960
C1467       C  0.51699804  0.78122911  0.73014792     0.20050
C1468       C  0.51499022  0.78381327  0.76572714     0.25090
C1469       C  0.99093893  0.76770675  0.78378056    -0.22910
C1470       C  0.96858888  0.74935878  0.76551096     0.19990
F1471       F  0.94549871  0.73290562  0.78226071    -0.12870
F1472       F  0.94772565  0.72993888  0.71310031    -0.15230
F1473       F  0.53643038  0.80233724  0.78253291    -0.15230
F1474       F  0.54132727  0.79616245  0.71379027    -0.12870
C1475       C  0.76377534  0.53982051  0.73502309     0.25150
C1476       C  0.74859848  0.51508449  0.71694760    -0.22960
C1477       C  0.73253473  0.49138556  0.73564851     0.20050
C1478       C  0.73100487  0.49276752  0.77127464     0.25090
C1479       C  0.74649572  0.51718792  0.78932498    -0.22910
C1480       C  0.76306300  0.54062366  0.77083009     0.19990
F1481       F  0.77905629  0.56406738  0.78741790    -0.12870
F1482       F  0.77879015  0.56364930  0.71810972    -0.15230
F1483       F  0.71379936  0.97037212  0.78811159    -0.15230
F1484       F  0.71870450  0.46636997  0.71955619    -0.12870
C1485       C  0.73142087  0.53593200  0.23127921     0.25150
C1486       C  0.75346187  0.51901562  0.21155012    -0.22960
C1487       C  0.77626409  0.00074751  0.22875039     0.20050
C1488       C  0.77627652  0.99864433  0.26452151     0.25090
C1489       C  0.75389768  0.51513244  0.28393826    -0.22910
C1490       C  0.73188507  0.53423172  0.26698996     0.19990
F1491       F  0.71067176  0.55132978  0.28512430    -0.12870
F1492       F  0.70848308  0.55322460  0.21612239    -0.15230
F1493       F  0.79755673  0.97968541  0.28013236    -0.15230
F1494       F  0.79872613  0.98494255  0.21100844    -0.12870
C1495       C  0.96825870  0.74173220  0.23382672     0.25150
C1496       C  0.98885579  0.76159581  0.21526277    -0.22960
C1497       C  0.51190407  0.77958204  0.23272047     0.20050
C1498       C  0.51468393  0.77748744  0.26815740     0.25090
C1499       C  0.99392996  0.75783884  0.28706870    -0.22910
C1500       C  0.97064556  0.73994884  0.26947693     0.19990
F1501       F  0.94972059  0.72127424  0.28675283    -0.12870
F1502       F  0.94623006  0.72363967  0.21735352    -0.15230
F1503       F  0.53813566  0.79435789  0.28386683    -0.15230
F1504       F  0.53161383  0.79949699  0.21537820    -0.12870
C1505       C  0.98078262  0.82870141  0.58522333     0.25150
C1506       C  0.00806226  0.81477469  0.59838035    -0.22960
C1507       C  0.53774798  0.82981080  0.59420066     0.20050
C1508       C  0.53990005  0.85924825  0.57794263     0.25090
C1509       C  0.51223501  0.87402856  0.56625662    -0.22910
C1510       C  0.98279414  0.85796022  0.56924666     0.19990
F1511       F  0.95572967  0.87067474  0.55685496    -0.12870
F1512       F  0.95194371  0.81437597  0.58896382    -0.15230
F1513       F  0.56864380  0.87388002  0.57514407    -0.15230
F1514       F  0.56441089  0.81630865  0.60661097    -0.12870
C1515       C  0.96368598  0.68147636  0.60293463     0.25150
C1516       C  0.99258184  0.69846669  0.60399660    -0.22960
C1517       C  0.51944009  0.68612861  0.58799471     0.20050
C1518       C  0.51772835  0.65695974  0.57163880     0.25090
C1519       C  0.98895937  0.63958750  0.57071555    -0.22910
C1520       C  0.96178805  0.65228852  0.58609589     0.19990
F1521       F  0.93382746  0.63597671  0.58593116    -0.12870
F1522       F  0.93738246  0.69323189  0.61810234    -0.15230
F1523       F  0.54431806  0.64572267  0.55652004    -0.15230
F1524       F  0.54759669  0.70211114  0.58889261    -0.12870
C1525       C  0.98088187  0.83770876  0.39199899     0.25150
C1526       C  0.00485253  0.81575914  0.39706053    -0.22960
C1527       C  0.53116271  0.82386039  0.41752308     0.20050
C1528       C  0.53378133  0.85407486  0.43206750     0.25090
C1529       C  0.51000375  0.87661488  0.42628006    -0.22910
C1530       C  0.98332974  0.86765217  0.40616441     0.19990
F1531       F  0.95910412  0.88764576  0.39993795    -0.12870
F1532       F  0.95475347  0.83003908  0.37317718    -0.15230
F1533       F  0.55959661  0.86114786  0.45154960    -0.15230
F1534       F  0.55468629  0.80281939  0.42260909    -0.12870
C1535       C  0.51639711  0.68928612  0.42094130     0.25150
C1536       C  0.99257779  0.69846636  0.39804352    -0.22960
C1537       C  0.96577651  0.67874336  0.39313334     0.20050
C1538       C  0.96311915  0.65001692  0.41054733     0.25090
C1539       C  0.98741474  0.64056548  0.43265617    -0.22910
C1540       C  0.51391879  0.66048538  0.43793683     0.19990
F1541       F  0.53774808  0.65168003  0.45916219    -0.12870
F1542       F  0.54272312  0.70760949  0.42573159    -0.15230
F1543       F  0.93774727  0.63072530  0.40446363    -0.15230
F1544       F  0.94231350  0.68724048  0.37132113    -0.12870
C1545       C  0.65702752  0.97395397  0.56284541     0.25150
C1546       C  0.62986621  0.98895849  0.57566689    -0.22960
C1547       C  0.63318308  0.50794725  0.60518102     0.20050
C1548       C  0.66276750  0.51411437  0.61946125     0.25090
C1549       C  0.69009254  0.49943872  0.60683647    -0.22910
C1550       C  0.68687208  0.97889079  0.57853720     0.19990
F1551       F  0.71246333  0.96352217  0.56612398    -0.12870
F1552       F  0.65495768  0.95528935  0.53473919    -0.15230
F1553       F  0.66460434  0.53560424  0.64519624    -0.15230
F1554       F  0.60766986  0.52160205  0.62010740    -0.12870
C1555       C  0.83522976  0.50473033  0.62028934     0.25150
C1556       C  0.80904109  0.52077156  0.60687627    -0.22960
C1557       C  0.81338541  0.53935162  0.57730050     0.20050
C1558       C  0.84333744  0.54148415  0.56140864     0.25090
C1559       C  0.86944784  0.52529678  0.57506168    -0.22910
C1560       C  0.86498217  0.50746664  0.60513991     0.19990
F1561       F  0.88949726  0.49218711  0.62007854    -0.12870
F1562       F  0.83194830  0.48540092  0.64777559    -0.15230
F1563       F  0.84648426  0.55851844  0.53220569    -0.15230
F1564       F  0.78878696  0.55560974  0.56393514    -0.12870
C1565       C  0.63265415  0.50722523  0.39037000     0.25150
C1566       C  0.62887948  0.98917629  0.42044383    -0.22960
C1567       C  0.65570275  0.97411374  0.43398040     0.20050
C1568       C  0.68573137  0.97829638  0.41865897     0.25090
C1569       C  0.68953271  0.49780577  0.38966460    -0.22910
C1570       C  0.66247269  0.51204409  0.37577208     0.19990
F1571       F  0.66490265  0.53206263  0.34878760    -0.12870
F1572       F  0.60741544  0.52115971  0.37525363    -0.15230
F1573       F  0.71105737  0.96333112  0.43226306    -0.15230
F1574       F  0.65320056  0.95635899  0.46270330    -0.12870
C1575       C  0.85844324  0.54899841  0.40777412     0.25150
C1576       C  0.86598788  0.52698296  0.43312719    -0.22960
C1577       C  0.84340705  0.50393552  0.44243533     0.20050
C1578       C  0.81420978  0.50183569  0.42553370     0.25090
C1579       C  0.80701438  0.52279131  0.39878958    -0.22910
C1580       C  0.82914976  0.54699626  0.39074796     0.19990
F1581       F  0.82270955  0.56837035  0.36596896    -0.12870
F1582       F  0.88013733  0.57123096  0.39813271    -0.15230
F1583       F  0.79386884  0.97798458  0.43395449    -0.15230
F1584       F  0.85015426  0.98269303  0.46726981    -0.12870
loop_ 
_geom_bond_atom_site_label_1 
_geom_bond_atom_site_label_2 
_geom_bond_distance 
_geom_bond_site_symmetry_2 
_ccdc_geom_bond_type 
O1          Zr13   2.435       .  S
O1          C399   1.286       .  A
O2          Zr39   2.434       .  S
O2            C3   1.287       .  A
C3          O397   1.286   1_545  A
C3          C388   1.472       .  S
O4          Zr16   2.426       .  S
O4          C798   1.286       .  A
O5          Zr40   2.448       .  S
O5            C6   1.291       .  A
C6          O796   1.286   1_455  A
C6          C321   1.480       .  S
O7          Zr16   2.416       .  S
O7          C405   1.284       .  A
O8          Zr39   2.447       .  S
O8            C9   1.290       .  A
C9          O403   1.284   1_545  A
C9          C371   1.487       .  S
O10         Zr13   2.414       .  S
O10         C804   1.283       .  A
O11         Zr40   2.453       .  S
O11          C12   1.292       .  A
C12         O802   1.283   1_455  A
C12         C341   1.493       .  S
Zr13         O14   2.433       .  S
Zr13         O15   2.434       .  S
Zr13         O19   2.359       .  S
Zr13         O20   2.366       .  S
Zr13        O835   2.373       .  S
Zr13        O441   2.361       .  S
O14          H57   0.990       .  S
O15          H56   0.990       .  S
O15          H60   0.990       .  S
Zr16         O17   2.436       .  S
Zr16         O18   2.435       .  S
Zr16         O20   2.360       .  S
Zr16         O19   2.363       .  S
Zr16        O440   2.366       .  S
Zr16        O838   2.368       .  S
O17          H58   0.990       .  S
O17          H61   0.990       .  S
O18          H51   0.990       .  S
O19        Zr435   2.380       .  S
O20        Zr832   2.400       .  S
O20          H47   0.965       .  S
O21         Zr33   2.417       .  S
O21         C419   1.283   1_545  A
O22         Zr40   2.459       .  S
O22          C23   1.292       .  A
C23         O417   1.283       .  A
C23         C378   1.492       .  S
O24         Zr36   2.417       .  S
O24         C818   1.284   1_455  A
O25         Zr39   2.443       .  S
O25          C26   1.290       .  A
C26         O816   1.284       .  A
C26         C331   1.478       .  S
O27         Zr36   2.398       .  S
O27         C425   1.280   1_545  A
O28         Zr40   2.469       .  S
O28          C29   1.294       .  A
C29         O423   1.280       .  A
C29         C358   1.491       .  S
O30         Zr33   2.415       .  S
O30         C824   1.283   1_455  A
O31         Zr39   2.438       .  S
O31          C32   1.289       .  A
C32         O822   1.283       .  A
C32         C351   1.467       .  S
Zr33         O34   2.437       .  S
Zr33         O35   2.434       .  S
Zr33         O41   2.363       .  S
Zr33         O42   2.362       .  S
Zr33        O837   2.367   1_455  S
Zr33        O439   2.366   1_545  S
O34          H54   0.990       .  S
O34          H59   0.990       .  S
O35          H55   0.990       .  S
Zr36         O37   2.433       .  S
Zr36         O38   2.434       .  S
Zr36         O42   2.356       .  S
Zr36         O41   2.367       .  S
Zr36        O442   2.367   1_545  S
Zr36        O836   2.359   1_455  S
O37          H53   0.990       .  S
O38          H52   0.990       .  S
O38          H62   0.990       .  S
Zr39         O44   2.394       .  S
Zr39         O45   2.395       .  S
Zr39        O415   2.380   1_545  S
Zr39        O834   2.380       .  S
Zr40         O43   2.401       .  S
Zr40         O46   2.399       .  S
Zr40        O812   2.400   1_455  S
Zr40        O437   2.393       .  S
O41        Zr436   2.393   1_545  S
O41          H49   0.966       .  S
O42        Zr831   2.380   1_455  S
O43        Zr805   2.373   1_455  S
O43        Zr429   2.366       .  S
O44        Zr412   2.366   1_545  S
O44        Zr828   2.359       .  S
O44          H48   0.966       .  S
O45        Zr409   2.361   1_545  S
O45        Zr825   2.367       .  S
O45          H50   0.966       .  S
O46        Zr808   2.368   1_455  S
O46        Zr432   2.367       .  S
C63         C348   1.477       .  S
C63          C64   1.405       .  A
C63          C68   1.405       .  A
C64          C65   1.399       .  A
C64          H69   1.084       .  S
C65         C338   1.474       .  S
C65          C66   1.400       .  A
C66          C67   1.401       .  A
C66          H70   1.084       .  S
C67         C311   1.486       .  S
C67          C68   1.405       .  A
C68          H71   1.083       .  S
C72         C381   1.494   1_545  S
C72          C73   1.408       .  A
C72          C77   1.406       .  A
C73          C74   1.411       .  A
C73          H78   1.083       .  S
C74         C391   1.492       .  S
C74          C75   1.408       .  A
C75          C76   1.402       .  A
C75          H79   1.083       .  S
C76         C301   1.485       .  S
C76          C77   1.401       .  A
C77          H80   1.083   1_545  S
C81         C361   1.494   1_545  S
C81          C82   1.410       .  A
C81          C86   1.407       .  A
C82          C83   1.411       .  A
C82          H87   1.082       .  S
C83         C368   1.490       .  S
C83          C84   1.408       .  A
C84          C85   1.400       .  A
C84          H88   1.083       .  S
C85         C288   1.491       .  S
C85          C86   1.400       .  A
C86          H89   1.082       .  S
C90         C328   1.475       .  S
C90          C91   1.402       .  A
C90          C95   1.404       .  A
C91          C92   1.398       .  A
C91          H96   1.084       .  S
C92         C318   1.470       .  S
C92          C93   1.399       .  A
C93          C94   1.405       .  A
C93          H97   1.084       .  S
C94         C278   1.487       .  S
C94          C95   1.408       .  A
C95          H98   1.083       .  S
C99         C268   1.476       .  S
C99         C100   1.401       .  A
C99         C500   1.401       .  A
C100        C497   1.407       .  A
C100        H105   1.083       .  S
C101        C298   1.495       .  S
C101        C102   1.410       .  A
C101        C496   1.407   1_545  A
C102        C103   1.407       .  A
C102        H106   1.083       .  S
C103        C258   1.488       .  S
C103        C104   1.406       .  A
C104        C495   1.401   1_545  A
C104        H107   1.084       .  S
O108       Zr120   2.437       .  S
O108        C110   1.288       .  A
O109       Zr146   2.435       .  S
O109        C110   1.288       .  A
C110        C208   1.474       .  S
O111       Zr123   2.410       .  S
O111        C113   1.282       .  A
O112       Zr147   2.450   1_554  S
O112        C113   1.291       .  A
C113        C231   1.485       .  S
O114       Zr123   2.417       .  S
O114        C116   1.284       .  A
O115       Zr146   2.457   1_554  S
O115        C116   1.293       .  A
C116        C271   1.494       .  S
O117       Zr120   2.438       .  S
O117        C119   1.287       .  A
O118       Zr147   2.434       .  S
O118        C119   1.288       .  A
C119        C248   1.467       .  S
Zr120       O121   2.434       .  S
Zr120       O122   2.434       .  S
Zr120       O126   2.364       .  S
Zr120       O127   2.364       .  S
Zr120       O150   2.374       .  S
Zr120       O152   2.370       .  S
O121        H164   0.990       .  S
O122        H163   0.990       .  S
O122        H167   0.990       .  S
Zr123       O124   2.437       .  S
Zr123       O125   2.435       .  S
Zr123       O127   2.360   1_554  S
Zr123       O126   2.359   1_554  S
Zr123       O151   2.362       .  S
Zr123       O153   2.370       .  S
O124        H165   0.990       .  S
O124        H168   0.990       .  S
O125        H158   0.990       .  S
O126       Zr146   2.385       .  S
O127       Zr147   2.397       .  S
O127        H154   0.965   1_556  S
O128       Zr140   2.424       .  S
O128        C130   1.284       .  A
O129       Zr147   2.452       .  S
O129        C130   1.291       .  A
C130        C201   1.473       .  S
O131       Zr143   2.400       .  S
O131        C133   1.281       .  A
O132       Zr146   2.454   1_554  S
O132        C133   1.291       .  A
C133        C218   1.489       .  S
O134       Zr143   2.418       .  S
O134        C136   1.283       .  A
O135       Zr147   2.461   1_554  S
O135        C136   1.293       .  A
C136        C261   1.474       .  S
O137       Zr140   2.409       .  S
O137        C139   1.282       .  A
O138       Zr146   2.452       .  S
O138        C139   1.291       .  A
C139        C238   1.485       .  S
Zr140       O141   2.437       .  S
Zr140       O142   2.434       .  S
Zr140       O148   2.360       .  S
Zr140       O149   2.369       .  S
Zr140       O152   2.365       .  S
Zr140       O150   2.366       .  S
O141        H161   0.990       .  S
O141        H166   0.990       .  S
O142        H162   0.990       .  S
Zr143       O144   2.434       .  S
Zr143       O145   2.434       .  S
Zr143       O149   2.368   1_554  S
Zr143       O148   2.357   1_554  S
Zr143       O153   2.362       .  S
Zr143       O151   2.364       .  S
O144        H160   0.990       .  S
O145        H159   0.990       .  S
O145        H169   0.990       .  S
Zr146       O149   2.385       .  S
Zr146       O151   2.396   1_556  S
Zr146       O152   2.401       .  S
Zr147       O148   2.385       .  S
Zr147       O150   2.399       .  S
Zr147       O153   2.394   1_556  S
O148        H156   0.965       .  S
O151        H155   0.966       .  S
O152        H157   0.966       .  S
C170        C221   1.484       .  S
C170        C171   1.408       .  A
C170        C175   1.410       .  A
C171        C172   1.396       .  A
C171        H176   1.084       .  S
C172        C308   1.475       .  S
C172        C965   1.394       .  A
C173        C174   1.402       .  A
C173        C964   1.394   1_455  A
C173        H177   1.084       .  S
C174        C228   1.483       .  S
C174        C967   1.408   1_455  A
C175        C966   1.408       .  A
C175        H178   1.083       .  S
C179        C211   1.487       .  S
C179        C180   1.403       .  A
C179        C580   1.405       .  A
C180        C577   1.406       .  A
C180        H185   1.083       .  S
C181        C291   1.486       .  S
C181        C182   1.405       .  A
C181        C576   1.406   1_545  A
C182        C183   1.404       .  A
C182        H186   1.084       .  S
C183        C198   1.483       .  S
C183        C184   1.405       .  A
C184        C575   1.405   1_545  A
C184        H187   1.084       .  S
C188        C241   1.491       .  S
C188        C189   1.406       .  A
C188        C193   1.407       .  A
C189        C190   1.400       .  A
C189        H194   1.083       .  S
C190        C281   1.483       .  S
C190        C983   1.401       .  A
C191        C192   1.405       .  A
C191        C982   1.401   1_455  A
C191        H195   1.083       .  S
C192        C251   1.488       .  S
C192        C985   1.408   1_455  A
C193        C984   1.408       .  A
C193        H196   1.083       .  S
C197        C198   1.411       .  A
C197        C202   1.406       .  A
C197        F204   1.357       .  S
C198        C199   1.403       .  A
C199        C200   1.393       .  A
C199        F206   1.358       .  S
C200        C201   1.406       .  A
C200        F205   1.358       .  S
C201        C202   1.403       .  A
C202        F203   1.357       .  S
C207        C208   1.404       .  A
C207        C212   1.403       .  A
C207        F214   1.358       .  S
C208        C209   1.404       .  A
C209        C210   1.396       .  A
C209        F216   1.358       .  S
C210        C211   1.407       .  A
C210        F215   1.358       .  S
C211        C212   1.411       .  A
C212        F213   1.358       .  S
C217        C218   1.409       .  A
C217        C222   1.407       .  A
C217        F224   1.356       .  S
C218        C219   1.414       .  A
C219        C220   1.387       .  A
C219        F226   1.359       .  S
C220        C221   1.402       .  A
C220        F225   1.359       .  S
C221        C222   1.410       .  A
C222        F223   1.357       .  S
C227        C228   1.409       .  A
C227        C232   1.407       .  A
C227        F234   1.357       .  S
C228        C229   1.404       .  A
C229        C230   1.386       .  A
C229        F236   1.359       .  S
C230        C231   1.412       .  A
C230        F235   1.359       .  S
C231        C232   1.410       .  A
C232        F233   1.357       .  S
C237        C238   1.407       .  A
C237        C242   1.405       .  A
C237        F244   1.356       .  S
C238        C239   1.411       .  A
C239        C240   1.391       .  A
C239        F246   1.359       .  S
C240        C241   1.407       .  A
C240        F245   1.358       .  S
C241        C242   1.412       .  A
C242        F243   1.357       .  S
C247        C248   1.403       .  A
C247        C252   1.396       .  A
C247        F254   1.358       .  S
C248        C249   1.401       .  A
C249        C250   1.401       .  A
C249        F256   1.358       .  S
C250        C251   1.413       .  A
C250        F255   1.358       .  S
C251        C252   1.408       .  A
C252        F253   1.358       .  S
C257        C258   1.405       .  A
C257        C262   1.396       .  A
C257        F264   1.358       .  S
C258        C259   1.412       .  A
C259        C260   1.406       .  A
C259        F266   1.358       .  S
C260        C261   1.403       .  A
C260        F265   1.357       .  S
C261        C262   1.406       .  A
C262        F263   1.357       .  S
C267        C268   1.405       .  A
C267        C272   1.407       .  A
C267        F274   1.357       .  S
C268        C269   1.396       .  A
C269        C270   1.393       .  A
C269        F276   1.359       .  S
C270        C271   1.417       .  A
C270        F275   1.357       .  S
C271        C272   1.411       .  A
C272        F273   1.357       .  S
C277        C278   1.408       .  A
C277        C282   1.398       .  A
C277        F284   1.358       .  S
C278       C1071   1.410       .  A
C279        C280   1.398       .  A
C279       C1070   1.410   1_455  A
C279        F286   1.358       .  S
C280       C1073   1.405   1_455  A
C280        F285   1.358       .  S
C281        C282   1.407       .  A
C281       C1072   1.405       .  A
C282        F283   1.358       .  S
C287        C288   1.411       .  A
C287        C292   1.401       .  A
C287        F294   1.358       .  S
C288        C289   1.410   1_545  A
C289        C290   1.396       .  A
C289        F296   1.358       .  S
C290        C291   1.406   1_565  A
C290        F691   1.358       .  S
C291        C292   1.408       .  A
C292        F293   1.358       .  S
F295        C686   1.358       .  S
C297        C298   1.411       .  A
C297        C302   1.398       .  A
C297        F304   1.358       .  S
C298        C695   1.413       .  A
C299        C300   1.402       .  A
C299        C694   1.413       .  A
C299        F306   1.358       .  S
C300        C697   1.404       .  A
C300        F305   1.358       .  S
C301        C302   1.406       .  A
C301        C696   1.404   1_545  A
C302        F303   1.358       .  S
C307        C308   1.404       .  A
C307        C312   1.400       .  A
C307        F314   1.358       .  S
C308       C1101   1.403       .  A
C309        C310   1.394       .  A
C309       C1100   1.403   1_455  A
C309        F316   1.358       .  S
C310       C1103   1.410   1_455  A
C310        F315   1.358       .  S
C311        C312   1.410       .  A
C311       C1102   1.410       .  A
C312        F313   1.358       .  S
C317        C318   1.397       .  A
C317        C322   1.392       .  A
C317        F324   1.359       .  S
C318       C1111   1.405       .  A
C319        C320   1.404       .  A
C319       C1110   1.405       .  A
C319        F326   1.357       .  S
C320        C321   1.407       .  A
C320        F325   1.357       .  S
C321       C1114   1.412   1_455  A
C322       C1113   1.412       .  A
C322        F323   1.357       .  S
C327        C328   1.406       .  A
C327        C332   1.404       .  A
C327        F334   1.357       .  S
C328       C1121   1.400       .  A
C329        C330   1.394       .  A
C329       C1120   1.400   1_455  A
C329        F336   1.358       .  S
C330       C1123   1.410   1_455  A
C330        F335   1.358       .  S
C331        C332   1.407       .  A
C331       C1122   1.410       .  A
C332        F333   1.358       .  S
C337        C338   1.397       .  A
C337        C342   1.388       .  A
C337        F344   1.359       .  S
C338       C1131   1.405       .  A
C339        C340   1.405       .  A
C339       C1130   1.405       .  A
C339        F346   1.358       .  S
C340        C341   1.413       .  A
C340        F345   1.357       .  S
C341       C1134   1.418   1_455  A
C342       C1133   1.418       .  A
C342        F343   1.358       .  S
C347        C352   1.395       .  A
C347       C1140   1.404   1_455  A
C347        F354   1.358       .  S
C348        C349   1.409       .  A
C348       C1139   1.404       .  A
C349        C350   1.400       .  A
C349        F356   1.358       .  S
C350        C351   1.402       .  A
C350        F355   1.358       .  S
C351       C1144   1.406       .  A
C352       C1143   1.406   1_455  A
C352        F353   1.359       .  S
C357        C358   1.409       .  A
C357        C362   1.411       .  A
C357        F364   1.356       .  S
C358        C755   1.413       .  A
C359        C360   1.387       .  A
C359        C754   1.413   1_545  A
C359        F366   1.359       .  S
C360        C361   1.405   1_545  A
C360        F365   1.359       .  S
C361        C758   1.413       .  A
C362        C757   1.413       .  A
C362        F363   1.357       .  S
C367        C368   1.406       .  A
C367        C372   1.390       .  A
C367        F374   1.359   1_545  S
C368        C369   1.411       .  A
C369        C370   1.408       .  A
C369        F376   1.357       .  S
C370        C371   1.410       .  A
C370        F375   1.358       .  S
C371        C372   1.410       .  A
C372        F373   1.359   1_545  S
C377        C382   1.392       .  A
C377        C774   1.412   1_545  A
C377        F384   1.359       .  S
C378        C379   1.409       .  A
C378        C773   1.412       .  A
C379        C380   1.409       .  A
C379        F386   1.356       .  S
C380        C777   1.412       .  A
C380        F385   1.357       .  S
C381        C382   1.406   1_565  A
C381        C776   1.412       .  A
C382        F383   1.358       .  S
C387        C388   1.402       .  A
C387        C392   1.403       .  A
C387        F394   1.358       .  S
C388        C389   1.403       .  A
C389        C390   1.397       .  A
C389        F792   1.358   1_545  S
C390        C391   1.409       .  A
C390        F791   1.358   1_545  S
C391        C392   1.413       .  A
C392        F393   1.358       .  S
F395        C786   1.358       .  S
F396        C785   1.358       .  S
O397       Zr409   2.435       .  S
O398       Zr435   2.434       .  S
O398        C399   1.287       .  A
C399        C784   1.472       .  S
O400       Zr412   2.426       .  S
O400       C1194   1.286       .  A
O401       Zr436   2.448       .  S
O401        C402   1.291       .  A
C402       O1192   1.286   1_455  A
C402        C717   1.480       .  S
O403       Zr412   2.416       .  S
O404       Zr435   2.447       .  S
O404        C405   1.290       .  A
C405        C767   1.487       .  S
O406       Zr409   2.414       .  S
O406       C1200   1.283       .  A
O407       Zr436   2.453       .  S
O407        C408   1.292       .  A
C408       O1198   1.283   1_455  A
C408        C737   1.493       .  S
Zr409       O410   2.433       .  S
Zr409       O411   2.434       .  S
Zr409       O415   2.359       .  S
Zr409       O416   2.366       .  S
Zr409      O1231   2.373       .  S
O410        H453   0.990       .  S
O411        H452   0.990   1_565  S
O411        H456   0.990       .  S
Zr412       O413   2.436       .  S
Zr412       O414   2.435       .  S
Zr412       O416   2.360       .  S
Zr412       O415   2.363       .  S
Zr412      O1234   2.368       .  S
O413        H454   0.990       .  S
O413        H457   0.990       .  S
O414        H447   0.990       .  S
O416      Zr1228   2.400       .  S
O416        H443   0.965       .  S
O417       Zr429   2.417       .  S
O418       Zr436   2.459       .  S
O418        C419   1.292       .  A
C419        C774   1.492       .  S
O420       Zr432   2.417       .  S
O420       C1214   1.284   1_455  A
O421       Zr435   2.443       .  S
O421        C422   1.290       .  A
C422       O1212   1.284       .  A
C422        C727   1.478       .  S
O423       Zr432   2.398       .  S
O424       Zr436   2.469       .  S
O424        C425   1.294       .  A
C425        C754   1.491       .  S
O426       Zr429   2.415       .  S
O426       C1220   1.283   1_455  A
O427       Zr435   2.438       .  S
O427        C428   1.289       .  A
C428       O1218   1.283       .  A
C428        C747   1.467       .  S
Zr429       O430   2.437       .  S
Zr429       O431   2.434       .  S
Zr429       O437   2.363       .  S
Zr429       O438   2.362       .  S
Zr429      O1233   2.367   1_455  S
O430        H450   0.990       .  S
O430        H455   0.990       .  S
O431        H451   0.990       .  S
Zr432       O433   2.433       .  S
Zr432       O434   2.434       .  S
Zr432       O438   2.356       .  S
Zr432       O437   2.367       .  S
Zr432      O1232   2.359   1_455  S
O433        H449   0.990       .  S
O434        H448   0.990       .  S
O434        H458   0.990       .  S
Zr435      O1230   2.380       .  S
Zr435       O440   2.394       .  S
Zr435       O441   2.395       .  S
Zr436      O1208   2.400   1_455  S
Zr436       O439   2.401       .  S
Zr436       O442   2.399       .  S
O437        H445   0.966       .  S
O438      Zr1227   2.380   1_455  S
O439      Zr1201   2.373   1_455  S
O440      Zr1224   2.359       .  S
O440        H444   0.966       .  S
O441      Zr1221   2.367       .  S
O441        H446   0.966       .  S
O442      Zr1204   2.368   1_455  S
C459        C744   1.477       .  S
C459        C460   1.405       .  A
C459        C464   1.405       .  A
C460        C461   1.399       .  A
C460        H465   1.084       .  S
C461        C734   1.474       .  S
C461        C462   1.400       .  A
C462        C463   1.401       .  A
C462        H466   1.084       .  S
C463        C707   1.486       .  S
C463        C464   1.405       .  A
C464        H467   1.083       .  S
C468        C777   1.494       .  S
C468        C469   1.408       .  A
C468        C473   1.406       .  A
C469        C470   1.411       .  A
C469        H474   1.083       .  S
C470        C787   1.492       .  S
C470        C471   1.408       .  A
C471        C472   1.402       .  A
C471        H475   1.083       .  S
C472        C697   1.485       .  S
C472        C473   1.401       .  A
C473        H476   1.083       .  S
C477        C757   1.494       .  S
C477        C478   1.410       .  A
C477        C482   1.407       .  A
C478        C479   1.411       .  A
C478        H483   1.082       .  S
C479        C764   1.490       .  S
C479        C480   1.408       .  A
C480        C481   1.400       .  A
C480        H484   1.083       .  S
C481        C684   1.491       .  S
C481        C482   1.400       .  A
C482        H485   1.082       .  S
C486        C724   1.475       .  S
C486        C487   1.402       .  A
C486        C491   1.404       .  A
C487        C488   1.398       .  A
C487        H492   1.084       .  S
C488        C714   1.470       .  S
C488        C489   1.399       .  A
C489        C490   1.405       .  A
C489        H493   1.084       .  S
C490        C674   1.487       .  S
C490        C491   1.408       .  A
C491        H494   1.083       .  S
C495        C664   1.476       .  S
C495        C496   1.401       .  A
C496        H501   1.083       .  S
C497        C694   1.495       .  S
C497        C498   1.410       .  A
C498        C499   1.407       .  A
C498        H502   1.083       .  S
C499        C654   1.488       .  S
C499        C500   1.406       .  A
C500        H503   1.084       .  S
O504       Zr516   2.437       .  S
O504        C506   1.288       .  A
O505       Zr542   2.435       .  S
O505        C506   1.288       .  A
C506        C604   1.474       .  S
O507       Zr519   2.410       .  S
O507        C509   1.282       .  A
O508       Zr543   2.450   1_554  S
O508        C509   1.291       .  A
C509        C627   1.485       .  S
O510       Zr519   2.417       .  S
O510        C512   1.284       .  A
O511       Zr542   2.457   1_554  S
O511        C512   1.293       .  A
C512        C667   1.494       .  S
O513       Zr516   2.438       .  S
O513        C515   1.287       .  A
O514       Zr543   2.434       .  S
O514        C515   1.288       .  A
C515        C644   1.467       .  S
Zr516       O517   2.434       .  S
Zr516       O518   2.434       .  S
Zr516       O522   2.364       .  S
Zr516       O523   2.364       .  S
Zr516       O546   2.374       .  S
Zr516       O548   2.370       .  S
O517        H560   0.990       .  S
O518        H559   0.990       .  S
O518        H563   0.990       .  S
Zr519       O520   2.437       .  S
Zr519       O521   2.435       .  S
Zr519       O523   2.360   1_554  S
Zr519       O522   2.359   1_554  S
Zr519       O547   2.362       .  S
Zr519       O549   2.370       .  S
O520        H561   0.990       .  S
O520        H564   0.990       .  S
O521        H554   0.990       .  S
O522       Zr542   2.385       .  S
O523       Zr543   2.397       .  S
O523        H550   0.965   1_556  S
O524       Zr536   2.424       .  S
O524        C526   1.284       .  A
O525       Zr543   2.452       .  S
O525        C526   1.291       .  A
C526        C597   1.473       .  S
O527       Zr539   2.400       .  S
O527        C529   1.281       .  A
O528       Zr542   2.454   1_554  S
O528        C529   1.291       .  A
C529        C614   1.489       .  S
O530       Zr539   2.418       .  S
O530        C532   1.283       .  A
O531       Zr543   2.461   1_554  S
O531        C532   1.293       .  A
C532        C657   1.474       .  S
O533       Zr536   2.409       .  S
O533        C535   1.282       .  A
O534       Zr542   2.452       .  S
O534        C535   1.291       .  A
C535        C634   1.485       .  S
Zr536       O537   2.437       .  S
Zr536       O538   2.434       .  S
Zr536       O544   2.360       .  S
Zr536       O545   2.369       .  S
Zr536       O548   2.365       .  S
Zr536       O546   2.366       .  S
O537        H557   0.990       .  S
O537        H562   0.990       .  S
O538        H558   0.990       .  S
Zr539       O540   2.434       .  S
Zr539       O541   2.434       .  S
Zr539       O545   2.368   1_554  S
Zr539       O544   2.357   1_554  S
Zr539       O549   2.362       .  S
Zr539       O547   2.364       .  S
O540        H556   0.990       .  S
O541        H555   0.990       .  S
O541        H565   0.990       .  S
Zr542       O545   2.385       .  S
Zr542       O547   2.396   1_556  S
Zr542       O548   2.401       .  S
Zr543       O544   2.385       .  S
Zr543       O546   2.399       .  S
Zr543       O549   2.394   1_556  S
O544        H552   0.965       .  S
O547        H551   0.966       .  S
O548        H553   0.966       .  S
C566        C617   1.484       .  S
C566        C567   1.408       .  A
C566        C571   1.410       .  A
C567        C568   1.396       .  A
C567        H572   1.084       .  S
C568        C704   1.475       .  S
C568       C1361   1.394       .  A
C569       C1360   1.394   1_455  A
C569        C570   1.402       .  A
C569        H573   1.084       .  S
C570        C624   1.483       .  S
C570       C1363   1.408   1_455  A
C571       C1362   1.408       .  A
C571        H574   1.083       .  S
C575        C607   1.487       .  S
C575        C576   1.403       .  A
C576        H581   1.083       .  S
C577        C687   1.486       .  S
C577        C578   1.405       .  A
C578        C579   1.404       .  A
C578        H582   1.084       .  S
C579        C594   1.483       .  S
C579        C580   1.405       .  A
C580        H583   1.084       .  S
C584        C637   1.491       .  S
C584        C585   1.406       .  A
C584        C589   1.407       .  A
C585        C586   1.400       .  A
C585        H590   1.083       .  S
C586        C677   1.483       .  S
C586       C1379   1.401       .  A
C587       C1378   1.401   1_455  A
C587        C588   1.405       .  A
C587        H591   1.083       .  S
C588        C647   1.488       .  S
C588       C1381   1.408   1_455  A
C589       C1380   1.408       .  A
C589        H592   1.083       .  S
C593        C594   1.411       .  A
C593        C598   1.406       .  A
C593        F600   1.357       .  S
C594        C595   1.403       .  A
C595        C596   1.393       .  A
C595        F602   1.358       .  S
C596        C597   1.406       .  A
C596        F601   1.358       .  S
C597        C598   1.403       .  A
C598        F599   1.357       .  S
C603        C604   1.404       .  A
C603        C608   1.403       .  A
C603        F610   1.358       .  S
C604        C605   1.404       .  A
C605        C606   1.396       .  A
C605        F612   1.358       .  S
C606        C607   1.407       .  A
C606        F611   1.358       .  S
C607        C608   1.411       .  A
C608        F609   1.358       .  S
C613        C614   1.409       .  A
C613        C618   1.407       .  A
C613        F620   1.356       .  S
C614        C615   1.414       .  A
C615        C616   1.387       .  A
C615        F622   1.359       .  S
C616        C617   1.402       .  A
C616        F621   1.359       .  S
C617        C618   1.410       .  A
C618        F619   1.357       .  S
C623        C624   1.409       .  A
C623        C628   1.407       .  A
C623        F630   1.357       .  S
C624        C625   1.404       .  A
C625        C626   1.386       .  A
C625        F632   1.359       .  S
C626        C627   1.412       .  A
C626        F631   1.359       .  S
C627        C628   1.410       .  A
C628        F629   1.357       .  S
C633        C634   1.407       .  A
C633        C638   1.405       .  A
C633        F640   1.356       .  S
C634        C635   1.411       .  A
C635        C636   1.391       .  A
C635        F642   1.359       .  S
C636        C637   1.407       .  A
C636        F641   1.358       .  S
C637        C638   1.412       .  A
C638        F639   1.357       .  S
C643        C644   1.403       .  A
C643        C648   1.396       .  A
C643        F650   1.358       .  S
C644        C645   1.401       .  A
C645        C646   1.401       .  A
C645        F652   1.358       .  S
C646        C647   1.413       .  A
C646        F651   1.358       .  S
C647        C648   1.408       .  A
C648        F649   1.358       .  S
C653        C654   1.405       .  A
C653        C658   1.396       .  A
C653        F660   1.358       .  S
C654        C655   1.412       .  A
C655        C656   1.406       .  A
C655        F662   1.358       .  S
C656        C657   1.403       .  A
C656        F661   1.357       .  S
C657        C658   1.406       .  A
C658        F659   1.357       .  S
C663        C664   1.405       .  A
C663        C668   1.407       .  A
C663        F670   1.357       .  S
C664        C665   1.396       .  A
C665        C666   1.393       .  A
C665        F672   1.359       .  S
C666        C667   1.417       .  A
C666        F671   1.357       .  S
C667        C668   1.411       .  A
C668        F669   1.357       .  S
C673        C674   1.408       .  A
C673        C678   1.398       .  A
C673        F680   1.358       .  S
C674       C1467   1.410       .  A
C675       C1466   1.410   1_455  A
C675        C676   1.398       .  A
C675        F682   1.358       .  S
C676       C1469   1.405   1_455  A
C676        F681   1.358       .  S
C677       C1468   1.405       .  A
C677        C678   1.407       .  A
C678        F679   1.358       .  S
C683        C684   1.411       .  A
C683        C688   1.401       .  A
C683        F690   1.358       .  S
C684        C685   1.410       .  A
C685        C686   1.396       .  A
C685        F692   1.358       .  S
C686        C687   1.406       .  A
C687        C688   1.408       .  A
C688        F689   1.358       .  S
C693        C694   1.411       .  A
C693        C698   1.398       .  A
C693        F700   1.358       .  S
C695        C696   1.402   1_545  A
C695        F702   1.358   1_545  S
C696        F701   1.358       .  S
C697        C698   1.406       .  A
C698        F699   1.358       .  S
C703        C704   1.404       .  A
C703        C708   1.400       .  A
C703        F710   1.358       .  S
C704       C1497   1.403       .  A
C705       C1496   1.403   1_455  A
C705        C706   1.394       .  A
C705        F712   1.358       .  S
C706       C1499   1.410   1_455  A
C706        F711   1.358       .  S
C707       C1498   1.410       .  A
C707        C708   1.410       .  A
C708        F709   1.358       .  S
C713        C714   1.397       .  A
C713        C718   1.392       .  A
C713        F720   1.359       .  S
C714       C1507   1.405       .  A
C715       C1506   1.405       .  A
C715        C716   1.404       .  A
C715        F722   1.357       .  S
C716        C717   1.407       .  A
C716        F721   1.357       .  S
C717       C1510   1.412   1_455  A
C718       C1509   1.412       .  A
C718        F719   1.357       .  S
C723        C724   1.406       .  A
C723        C728   1.404       .  A
C723        F730   1.357       .  S
C724       C1517   1.400       .  A
C725       C1516   1.400   1_455  A
C725        C726   1.394       .  A
C725        F732   1.358       .  S
C726       C1519   1.410   1_455  A
C726        F731   1.358       .  S
C727       C1518   1.410       .  A
C727        C728   1.407       .  A
C728        F729   1.358       .  S
C733        C734   1.397       .  A
C733        C738   1.388       .  A
C733        F740   1.359       .  S
C734       C1527   1.405       .  A
C735       C1526   1.405       .  A
C735        C736   1.405       .  A
C735        F742   1.358       .  S
C736        C737   1.413       .  A
C736        F741   1.357       .  S
C737       C1530   1.418   1_455  A
C738       C1529   1.418       .  A
C738        F739   1.358       .  S
C743       C1536   1.404   1_455  A
C743        C748   1.395       .  A
C743        F750   1.358       .  S
C744       C1535   1.404       .  A
C744        C745   1.409       .  A
C745        C746   1.400       .  A
C745        F752   1.358       .  S
C746        C747   1.402       .  A
C746        F751   1.358       .  S
C747       C1540   1.406       .  A
C748       C1539   1.406   1_455  A
C748        F749   1.359       .  S
C753        C754   1.409       .  A
C753        C758   1.411       .  A
C753        F760   1.356       .  S
C755        C756   1.387       .  A
C755        F762   1.359       .  S
C756        C757   1.405       .  A
C756        F761   1.359       .  S
C758        F759   1.357       .  S
C763        C764   1.406       .  A
C763        C768   1.390       .  A
C763        F770   1.359       .  S
C764        C765   1.411       .  A
C765        C766   1.408       .  A
C765        F772   1.357       .  S
C766        C767   1.410       .  A
C766        F771   1.358       .  S
C767        C768   1.410       .  A
C768        F769   1.359       .  S
C773        C778   1.392       .  A
C773        F780   1.359       .  S
C774        C775   1.409       .  A
C775        C776   1.409       .  A
C775        F782   1.356       .  S
C776        F781   1.357       .  S
C777        C778   1.406       .  A
C778        F779   1.358       .  S
C783        C784   1.402       .  A
C783        C788   1.403       .  A
C783        F790   1.358       .  S
C784        C785   1.403       .  A
C785        C786   1.397       .  A
C786        C787   1.409       .  A
C787        C788   1.413       .  A
C788        F789   1.358       .  S
O793       Zr805   2.435       .  S
O793       C1191   1.286       .  A
O794       Zr831   2.434       .  S
O794        C795   1.287       .  A
C795       O1189   1.286   1_545  A
C795       C1180   1.472       .  S
O796       Zr808   2.426       .  S
O797       Zr832   2.448       .  S
O797        C798   1.291       .  A
C798       C1113   1.480       .  S
O799       Zr808   2.416       .  S
O799       C1197   1.284       .  A
O800       Zr831   2.447       .  S
O800        C801   1.290       .  A
C801       O1195   1.284   1_545  A
C801       C1163   1.487       .  S
O802       Zr805   2.414       .  S
O803       Zr832   2.453       .  S
O803        C804   1.292       .  A
C804       C1133   1.493       .  S
Zr805       O806   2.433       .  S
Zr805       O807   2.434       .  S
Zr805       O811   2.359       .  S
Zr805       O812   2.366       .  S
Zr805      O1233   2.361       .  S
O806        H849   0.990       .  S
O807        H848   0.990       .  S
O807        H852   0.990       .  S
Zr808       O809   2.436       .  S
Zr808       O810   2.435       .  S
Zr808       O812   2.360       .  S
Zr808       O811   2.363       .  S
Zr808      O1232   2.366       .  S
O809        H850   0.990       .  S
O809        H853   0.990       .  S
O810        H843   0.990       .  S
O811      Zr1227   2.380       .  S
O812        H839   0.965       .  S
O813       Zr825   2.417       .  S
O813       C1211   1.283   1_545  A
O814       Zr832   2.459       .  S
O814        C815   1.292       .  A
C815       O1209   1.283       .  A
C815       C1170   1.492       .  S
O816       Zr828   2.417       .  S
O817       Zr831   2.443       .  S
O817        C818   1.290       .  A
C818       C1123   1.478       .  S
O819       Zr828   2.398       .  S
O819       C1217   1.280   1_545  A
O820       Zr832   2.469       .  S
O820        C821   1.294       .  A
C821       O1215   1.280       .  A
C821       C1150   1.491       .  S
O822       Zr825   2.415       .  S
O823       Zr831   2.438       .  S
O823        C824   1.289       .  A
C824       C1143   1.467       .  S
Zr825       O826   2.437       .  S
Zr825       O827   2.434       .  S
Zr825       O833   2.363       .  S
Zr825       O834   2.362       .  S
Zr825      O1231   2.366   1_545  S
O826        H846   0.990       .  S
O826        H851   0.990       .  S
O827        H847   0.990       .  S
Zr828       O829   2.433       .  S
Zr828       O830   2.434       .  S
Zr828       O834   2.356       .  S
Zr828       O833   2.367       .  S
Zr828      O1234   2.367   1_545  S
O829        H845   0.990       .  S
O830        H844   0.990       .  S
O830        H854   0.990       .  S
Zr831      O1207   2.380   1_545  S
Zr831       O836   2.394       .  S
Zr831       O837   2.395       .  S
Zr832      O1229   2.393       .  S
Zr832       O835   2.401       .  S
Zr832       O838   2.399       .  S
O833      Zr1228   2.393   1_545  S
O833        H841   0.966       .  S
O835      Zr1221   2.366       .  S
O836      Zr1204   2.366   1_545  S
O836        H840   0.966       .  S
O837      Zr1201   2.361   1_545  S
O837        H842   0.966       .  S
O838      Zr1224   2.367       .  S
C855       C1140   1.477       .  S
C855        C856   1.405   1_655  A
C855        C860   1.405       .  A
C856        C857   1.399       .  A
C856        H861   1.084       .  S
C857       C1130   1.474       .  S
C857        C858   1.400   1_455  A
C858        C859   1.401       .  A
C858        H862   1.084   1_655  S
C859       C1103   1.486       .  S
C859        C860   1.405       .  A
C860        H863   1.083       .  S
C864       C1173   1.494   1_545  S
C864        C865   1.408       .  A
C864        C869   1.406       .  A
C865        C866   1.411       .  A
C865        H870   1.083       .  S
C866       C1183   1.492       .  S
C866        C867   1.408       .  A
C867        C868   1.402       .  A
C867        H871   1.083       .  S
C868       C1093   1.485       .  S
C868        C869   1.401       .  A
C869        H872   1.083   1_545  S
C873       C1153   1.494   1_545  S
C873        C874   1.410       .  A
C873        C878   1.407       .  A
C874        C875   1.411       .  A
C874        H879   1.082       .  S
C875       C1160   1.490       .  S
C875        C876   1.408       .  A
C876        C877   1.400       .  A
C876        H880   1.083       .  S
C877       C1080   1.491       .  S
C877        C878   1.400       .  A
C878        H881   1.082       .  S
C882       C1120   1.475       .  S
C882        C883   1.402   1_655  A
C882        C887   1.404       .  A
C883        C884   1.398       .  A
C883        H888   1.084       .  S
C884       C1110   1.470       .  S
C884        C885   1.399       .  A
C885        C886   1.405   1_455  A
C885        H889   1.084       .  S
C886       C1070   1.487       .  S
C886        C887   1.408       .  A
C887        H890   1.083       .  S
C891       C1060   1.476       .  S
C891        C892   1.401       .  A
C891       C1292   1.401       .  A
C892       C1289   1.407       .  A
C892        H897   1.083       .  S
C893       C1090   1.495       .  S
C893       C1288   1.407   1_545  A
C893        C894   1.410       .  A
C894        C895   1.407       .  A
C894        H898   1.083       .  S
C895       C1050   1.488       .  S
C895        C896   1.406       .  A
C896       C1287   1.401   1_545  A
C896        H899   1.084       .  S
O900       Zr912   2.437       .  S
O900        C902   1.288       .  A
O901       Zr938   2.435       .  S
O901        C902   1.288       .  A
C902       C1000   1.474       .  S
O903       Zr915   2.410       .  S
O903        C905   1.282       .  A
O904       Zr939   2.450   1_554  S
O904        C905   1.291       .  A
C905       C1023   1.485       .  S
O906       Zr915   2.417       .  S
O906        C908   1.284       .  A
O907       Zr938   2.457   1_554  S
O907        C908   1.293       .  A
C908       C1063   1.494       .  S
O909       Zr912   2.438       .  S
O909        C911   1.287       .  A
O910       Zr939   2.434       .  S
O910        C911   1.288       .  A
C911       C1040   1.467       .  S
Zr912       O913   2.434       .  S
Zr912       O914   2.434       .  S
Zr912       O918   2.364       .  S
Zr912       O919   2.364       .  S
Zr912       O942   2.374       .  S
Zr912       O944   2.370       .  S
O913        H956   0.990       .  S
O914        H955   0.990       .  S
O914        H959   0.990       .  S
Zr915       O916   2.437       .  S
Zr915       O917   2.435       .  S
Zr915       O919   2.360   1_554  S
Zr915       O918   2.359   1_554  S
Zr915       O943   2.362       .  S
Zr915       O945   2.370       .  S
O916        H957   0.990       .  S
O916        H960   0.990       .  S
O917        H950   0.990       .  S
O918       Zr938   2.385       .  S
O919       Zr939   2.397       .  S
O919        H946   0.965   1_556  S
O920       Zr932   2.424       .  S
O920        C922   1.284       .  A
O921       Zr939   2.452       .  S
O921        C922   1.291       .  A
C922        C993   1.473       .  S
O923       Zr935   2.400       .  S
O923        C925   1.281       .  A
O924       Zr938   2.454   1_554  S
O924        C925   1.291       .  A
C925       C1010   1.489       .  S
O926       Zr935   2.418       .  S
O926        C928   1.283       .  A
O927       Zr939   2.461   1_554  S
O927        C928   1.293       .  A
C928       C1053   1.474       .  S
O929       Zr932   2.409       .  S
O929        C931   1.282       .  A
O930       Zr938   2.452       .  S
O930        C931   1.291       .  A
C931       C1030   1.485       .  S
Zr932       O933   2.437       .  S
Zr932       O934   2.434       .  S
Zr932       O940   2.360       .  S
Zr932       O941   2.369       .  S
Zr932       O944   2.365       .  S
Zr932       O942   2.366       .  S
O933        H953   0.990       .  S
O933        H958   0.990       .  S
O934        H954   0.990       .  S
Zr935       O936   2.434       .  S
Zr935       O937   2.434       .  S
Zr935       O941   2.368   1_554  S
Zr935       O940   2.357   1_554  S
Zr935       O945   2.362       .  S
Zr935       O943   2.364       .  S
O936        H952   0.990       .  S
O937        H951   0.990       .  S
O937        H961   0.990       .  S
Zr938       O941   2.385       .  S
Zr938       O943   2.396   1_556  S
Zr938       O944   2.401       .  S
Zr939       O940   2.385       .  S
Zr939       O942   2.399       .  S
Zr939       O945   2.394   1_556  S
O940        H948   0.965       .  S
O943        H947   0.966       .  S
O944        H949   0.966       .  S
C962       C1013   1.484       .  S
C962        C963   1.408       .  A
C962        C967   1.410       .  A
C963        C964   1.396       .  A
C963        H968   1.084       .  S
C964       C1100   1.475       .  S
C965        C966   1.402       .  A
C965        H969   1.084       .  S
C966       C1020   1.483       .  S
C967        H970   1.083       .  S
C971       C1003   1.487       .  S
C971        C972   1.403       .  A
C971       C1372   1.405       .  A
C972       C1369   1.406       .  A
C972        H977   1.083       .  S
C973       C1083   1.486       .  S
C973       C1368   1.406   1_545  A
C973        C974   1.405       .  A
C974        C975   1.404       .  A
C974        H978   1.084       .  S
C975        C990   1.483       .  S
C975        C976   1.405       .  A
C976       C1367   1.405   1_545  A
C976        H979   1.084       .  S
C980       C1033   1.491       .  S
C980        C981   1.406       .  A
C980        C985   1.407       .  A
C981        C982   1.400       .  A
C981        H986   1.083       .  S
C982       C1073   1.483       .  S
C983        C984   1.405       .  A
C983        H987   1.083       .  S
C984       C1043   1.488       .  S
C985        H988   1.083       .  S
C989        C990   1.411       .  A
C989        C994   1.406       .  A
C989        F996   1.357       .  S
C990        C991   1.403       .  A
C991        C992   1.393       .  A
C991        F998   1.358       .  S
C992        C993   1.406       .  A
C992        F997   1.358       .  S
C993        C994   1.403       .  A
C994        F995   1.357       .  S
C999       C1000   1.404       .  A
C999       C1004   1.403       .  A
C999       F1006   1.358       .  S
C1000      C1001   1.404       .  A
C1001      C1002   1.396       .  A
C1001      F1008   1.358       .  S
C1002      C1003   1.407       .  A
C1002      F1007   1.358       .  S
C1003      C1004   1.411       .  A
C1004      F1005   1.358       .  S
C1009      C1010   1.409       .  A
C1009      C1014   1.407       .  A
C1009      F1016   1.356       .  S
C1010      C1011   1.414       .  A
C1011      C1012   1.387       .  A
C1011      F1018   1.359       .  S
C1012      C1013   1.402       .  A
C1012      F1017   1.359       .  S
C1013      C1014   1.410       .  A
C1014      F1015   1.357       .  S
C1019      C1020   1.409       .  A
C1019      C1024   1.407       .  A
C1019      F1026   1.357       .  S
C1020      C1021   1.404       .  A
C1021      C1022   1.386       .  A
C1021      F1028   1.359       .  S
C1022      C1023   1.412       .  A
C1022      F1027   1.359       .  S
C1023      C1024   1.410       .  A
C1024      F1025   1.357       .  S
C1029      C1030   1.407       .  A
C1029      C1034   1.405       .  A
C1029      F1036   1.356       .  S
C1030      C1031   1.411       .  A
C1031      C1032   1.391       .  A
C1031      F1038   1.359       .  S
C1032      C1033   1.407       .  A
C1032      F1037   1.358       .  S
C1033      C1034   1.412       .  A
C1034      F1035   1.357       .  S
C1039      C1040   1.403       .  A
C1039      C1044   1.396       .  A
C1039      F1046   1.358       .  S
C1040      C1041   1.401       .  A
C1041      C1042   1.401       .  A
C1041      F1048   1.358       .  S
C1042      C1043   1.413       .  A
C1042      F1047   1.358       .  S
C1043      C1044   1.408       .  A
C1044      F1045   1.358       .  S
C1049      C1050   1.405       .  A
C1049      C1054   1.396       .  A
C1049      F1056   1.358       .  S
C1050      C1051   1.412       .  A
C1051      C1052   1.406       .  A
C1051      F1058   1.358       .  S
C1052      C1053   1.403       .  A
C1052      F1057   1.357       .  S
C1053      C1054   1.406       .  A
C1054      F1055   1.357       .  S
C1059      C1060   1.405       .  A
C1059      C1064   1.407       .  A
C1059      F1066   1.357       .  S
C1060      C1061   1.396       .  A
C1061      C1062   1.393       .  A
C1061      F1068   1.359       .  S
C1062      C1063   1.417       .  A
C1062      F1067   1.357       .  S
C1063      C1064   1.411       .  A
C1064      F1065   1.357       .  S
C1069      C1070   1.408       .  A
C1069      C1074   1.398       .  A
C1069      F1076   1.358       .  S
C1071      C1072   1.398       .  A
C1071      F1078   1.358       .  S
C1072      F1077   1.358       .  S
C1073      C1074   1.407       .  A
C1074      F1075   1.358       .  S
C1079      C1080   1.411       .  A
C1079      C1084   1.401       .  A
C1079      F1086   1.358       .  S
C1080      C1081   1.410   1_545  A
C1081      C1082   1.396       .  A
C1081      F1088   1.358       .  S
C1082      C1083   1.406   1_565  A
C1082      F1483   1.358       .  S
C1083      C1084   1.408       .  A
C1084      F1085   1.358       .  S
F1087      C1478   1.358       .  S
C1089      C1090   1.411       .  A
C1089      C1094   1.398       .  A
C1089      F1096   1.358       .  S
C1090      C1487   1.413       .  A
C1091      C1486   1.413       .  A
C1091      C1092   1.402       .  A
C1091      F1098   1.358       .  S
C1092      C1489   1.404       .  A
C1092      F1097   1.358       .  S
C1093      C1488   1.404   1_545  A
C1093      C1094   1.406       .  A
C1094      F1095   1.358       .  S
C1099      C1100   1.404       .  A
C1099      C1104   1.400       .  A
C1099      F1106   1.358       .  S
C1101      C1102   1.394       .  A
C1101      F1108   1.358       .  S
C1102      F1107   1.358       .  S
C1103      C1104   1.410       .  A
C1104      F1105   1.358       .  S
C1109      C1110   1.397   1_655  A
C1109      C1114   1.392       .  A
C1109      F1116   1.359       .  S
C1111      C1112   1.404       .  A
C1111      F1118   1.357       .  S
C1112      C1113   1.407       .  A
C1112      F1117   1.357       .  S
C1114      F1115   1.357       .  S
C1119      C1120   1.406       .  A
C1119      C1124   1.404       .  A
C1119      F1126   1.357       .  S
C1121      C1122   1.394       .  A
C1121      F1128   1.358       .  S
C1122      F1127   1.358       .  S
C1123      C1124   1.407       .  A
C1124      F1125   1.358       .  S
C1129      C1130   1.397   1_655  A
C1129      C1134   1.388       .  A
C1129      F1136   1.359       .  S
C1131      C1132   1.405       .  A
C1131      F1138   1.358       .  S
C1132      C1133   1.413       .  A
C1132      F1137   1.357       .  S
C1134      F1135   1.358       .  S
C1139      C1144   1.395       .  A
C1139      F1146   1.358       .  S
C1140      C1141   1.409       .  A
C1141      C1142   1.400       .  A
C1141      F1148   1.358       .  S
C1142      C1143   1.402       .  A
C1142      F1147   1.358       .  S
C1144      F1145   1.359       .  S
C1149      C1150   1.409       .  A
C1149      C1154   1.411       .  A
C1149      F1156   1.356       .  S
C1150      C1547   1.413       .  A
C1151      C1546   1.413   1_545  A
C1151      C1152   1.387       .  A
C1151      F1158   1.359       .  S
C1152      C1153   1.405   1_545  A
C1152      F1157   1.359       .  S
C1153      C1550   1.413       .  A
C1154      C1549   1.413       .  A
C1154      F1155   1.357       .  S
C1159      C1160   1.406       .  A
C1159      C1164   1.390       .  A
C1159      F1166   1.359   1_545  S
C1160      C1161   1.411       .  A
C1161      C1162   1.408       .  A
C1161      F1168   1.357       .  S
C1162      C1163   1.410       .  A
C1162      F1167   1.358       .  S
C1163      C1164   1.410       .  A
C1164      F1165   1.359   1_545  S
C1169      C1566   1.412   1_545  A
C1169      C1174   1.392       .  A
C1169      F1176   1.359       .  S
C1170      C1565   1.412       .  A
C1170      C1171   1.409       .  A
C1171      C1172   1.409       .  A
C1171      F1178   1.356       .  S
C1172      C1569   1.412       .  A
C1172      F1177   1.357       .  S
C1173      C1568   1.412       .  A
C1173      C1174   1.406   1_565  A
C1174      F1175   1.358       .  S
C1179      C1180   1.402       .  A
C1179      C1184   1.403       .  A
C1179      F1186   1.358       .  S
C1180      C1181   1.403       .  A
C1181      C1182   1.397       .  A
C1181      F1584   1.358   1_545  S
C1182      C1183   1.409       .  A
C1182      F1583   1.358   1_545  S
C1183      C1184   1.413       .  A
C1184      F1185   1.358       .  S
F1187      C1578   1.358       .  S
F1188      C1577   1.358       .  S
O1189     Zr1201   2.435       .  S
O1190     Zr1227   2.434       .  S
O1190      C1191   1.287       .  A
C1191      C1576   1.472       .  S
O1192     Zr1204   2.426       .  S
O1193     Zr1228   2.448       .  S
O1193      C1194   1.291       .  A
C1194      C1509   1.480       .  S
O1195     Zr1204   2.416       .  S
O1196     Zr1227   2.447       .  S
O1196      C1197   1.290       .  A
C1197      C1559   1.487       .  S
O1198     Zr1201   2.414       .  S
O1199     Zr1228   2.453       .  S
O1199      C1200   1.292       .  A
C1200      C1529   1.493       .  S
Zr1201     O1202   2.433       .  S
Zr1201     O1203   2.434       .  S
Zr1201     O1207   2.359       .  S
Zr1201     O1208   2.366       .  S
O1202      H1245   0.990       .  S
O1203      H1244   0.990   1_565  S
O1203      H1248   0.990       .  S
Zr1204     O1205   2.436       .  S
Zr1204     O1206   2.435       .  S
Zr1204     O1208   2.360       .  S
Zr1204     O1207   2.363       .  S
O1205      H1246   0.990       .  S
O1205      H1249   0.990       .  S
O1206      H1239   0.990       .  S
O1208      H1235   0.965       .  S
O1209     Zr1221   2.417       .  S
O1210     Zr1228   2.459       .  S
O1210      C1211   1.292       .  A
C1211      C1566   1.492       .  S
O1212     Zr1224   2.417       .  S
O1213     Zr1227   2.443       .  S
O1213      C1214   1.290       .  A
C1214      C1519   1.478       .  S
O1215     Zr1224   2.398       .  S
O1216     Zr1228   2.469       .  S
O1216      C1217   1.294       .  A
C1217      C1546   1.491       .  S
O1218     Zr1221   2.415       .  S
O1219     Zr1227   2.438       .  S
O1219      C1220   1.289       .  A
C1220      C1539   1.467       .  S
Zr1221     O1222   2.437       .  S
Zr1221     O1223   2.434       .  S
Zr1221     O1229   2.363       .  S
Zr1221     O1230   2.362       .  S
O1222      H1242   0.990       .  S
O1222      H1247   0.990       .  S
O1223      H1243   0.990       .  S
Zr1224     O1225   2.433       .  S
Zr1224     O1226   2.434       .  S
Zr1224     O1230   2.356       .  S
Zr1224     O1229   2.367       .  S
O1225      H1241   0.990       .  S
O1226      H1240   0.990       .  S
O1226      H1250   0.990       .  S
Zr1227     O1232   2.394       .  S
Zr1227     O1233   2.395       .  S
Zr1228     O1231   2.401       .  S
Zr1228     O1234   2.399       .  S
O1229      H1237   0.966       .  S
O1232      H1236   0.966       .  S
O1233      H1238   0.966       .  S
C1251      C1536   1.477       .  S
C1251      C1252   1.405   1_655  A
C1251      C1256   1.405       .  A
C1252      C1253   1.399       .  A
C1252      H1257   1.084       .  S
C1253      C1526   1.474       .  S
C1253      C1254   1.400   1_455  A
C1254      C1255   1.401       .  A
C1254      H1258   1.084   1_655  S
C1255      C1499   1.486       .  S
C1255      C1256   1.405       .  A
C1256      H1259   1.083       .  S
C1260      C1569   1.494       .  S
C1260      C1261   1.408       .  A
C1260      C1265   1.406       .  A
C1261      C1262   1.411       .  A
C1261      H1266   1.083       .  S
C1262      C1579   1.492       .  S
C1262      C1263   1.408       .  A
C1263      C1264   1.402       .  A
C1263      H1267   1.083       .  S
C1264      C1489   1.485       .  S
C1264      C1265   1.401       .  A
C1265      H1268   1.083       .  S
C1269      C1549   1.494       .  S
C1269      C1270   1.410       .  A
C1269      C1274   1.407       .  A
C1270      C1271   1.411       .  A
C1270      H1275   1.082       .  S
C1271      C1556   1.490       .  S
C1271      C1272   1.408       .  A
C1272      C1273   1.400       .  A
C1272      H1276   1.083       .  S
C1273      C1476   1.491       .  S
C1273      C1274   1.400       .  A
C1274      H1277   1.082       .  S
C1278      C1516   1.475       .  S
C1278      C1279   1.402   1_655  A
C1278      C1283   1.404       .  A
C1279      C1280   1.398       .  A
C1279      H1284   1.084       .  S
C1280      C1506   1.470       .  S
C1280      C1281   1.399       .  A
C1281      C1282   1.405   1_455  A
C1281      H1285   1.084       .  S
C1282      C1466   1.487       .  S
C1282      C1283   1.408       .  A
C1283      H1286   1.083       .  S
C1287      C1456   1.476       .  S
C1287      C1288   1.401       .  A
C1288      H1293   1.083       .  S
C1289      C1486   1.495       .  S
C1289      C1290   1.410       .  A
C1290      C1291   1.407       .  A
C1290      H1294   1.083       .  S
C1291      C1446   1.488       .  S
C1291      C1292   1.406       .  A
C1292      H1295   1.084       .  S
O1296     Zr1308   2.437       .  S
O1296      C1298   1.288       .  A
O1297     Zr1334   2.435       .  S
O1297      C1298   1.288       .  A
C1298      C1396   1.474       .  S
O1299     Zr1311   2.410       .  S
O1299      C1301   1.282       .  A
O1300     Zr1335   2.450   1_554  S
O1300      C1301   1.291       .  A
C1301      C1419   1.485       .  S
O1302     Zr1311   2.417       .  S
O1302      C1304   1.284       .  A
O1303     Zr1334   2.457   1_554  S
O1303      C1304   1.293       .  A
C1304      C1459   1.494       .  S
O1305     Zr1308   2.438       .  S
O1305      C1307   1.287       .  A
O1306     Zr1335   2.434       .  S
O1306      C1307   1.288       .  A
C1307      C1436   1.467       .  S
Zr1308     O1309   2.434       .  S
Zr1308     O1310   2.434       .  S
Zr1308     O1314   2.364       .  S
Zr1308     O1315   2.364       .  S
Zr1308     O1338   2.374       .  S
Zr1308     O1340   2.370       .  S
O1309      H1352   0.990       .  S
O1310      H1351   0.990       .  S
O1310      H1355   0.990       .  S
Zr1311     O1312   2.437       .  S
Zr1311     O1313   2.435       .  S
Zr1311     O1315   2.360   1_554  S
Zr1311     O1314   2.359   1_554  S
Zr1311     O1339   2.362       .  S
Zr1311     O1341   2.370       .  S
O1312      H1353   0.990       .  S
O1312      H1356   0.990       .  S
O1313      H1346   0.990       .  S
O1314     Zr1334   2.385       .  S
O1315     Zr1335   2.397       .  S
O1315      H1342   0.965   1_556  S
O1316     Zr1328   2.424       .  S
O1316      C1318   1.284       .  A
O1317     Zr1335   2.452       .  S
O1317      C1318   1.291       .  A
C1318      C1389   1.473       .  S
O1319     Zr1331   2.400       .  S
O1319      C1321   1.281       .  A
O1320     Zr1334   2.454   1_554  S
O1320      C1321   1.291       .  A
C1321      C1406   1.489       .  S
O1322     Zr1331   2.418       .  S
O1322      C1324   1.283       .  A
O1323     Zr1335   2.461   1_554  S
O1323      C1324   1.293       .  A
C1324      C1449   1.474       .  S
O1325     Zr1328   2.409       .  S
O1325      C1327   1.282       .  A
O1326     Zr1334   2.452       .  S
O1326      C1327   1.291       .  A
C1327      C1426   1.485       .  S
Zr1328     O1329   2.437       .  S
Zr1328     O1330   2.434       .  S
Zr1328     O1336   2.360       .  S
Zr1328     O1337   2.369       .  S
Zr1328     O1340   2.365       .  S
Zr1328     O1338   2.366       .  S
O1329      H1349   0.990       .  S
O1329      H1354   0.990       .  S
O1330      H1350   0.990       .  S
Zr1331     O1332   2.434       .  S
Zr1331     O1333   2.434       .  S
Zr1331     O1337   2.368   1_554  S
Zr1331     O1336   2.357   1_554  S
Zr1331     O1341   2.362       .  S
Zr1331     O1339   2.364       .  S
O1332      H1348   0.990       .  S
O1333      H1347   0.990       .  S
O1333      H1357   0.990       .  S
Zr1334     O1337   2.385       .  S
Zr1334     O1339   2.396   1_556  S
Zr1334     O1340   2.401       .  S
Zr1335     O1336   2.385       .  S
Zr1335     O1338   2.399       .  S
Zr1335     O1341   2.394   1_556  S
O1336      H1344   0.965       .  S
O1339      H1343   0.966       .  S
O1340      H1345   0.966       .  S
C1358      C1409   1.484       .  S
C1358      C1359   1.408       .  A
C1358      C1363   1.410       .  A
C1359      C1360   1.396       .  A
C1359      H1364   1.084       .  S
C1360      C1496   1.475       .  S
C1361      C1362   1.402       .  A
C1361      H1365   1.084       .  S
C1362      C1416   1.483       .  S
C1363      H1366   1.083       .  S
C1367      C1399   1.487       .  S
C1367      C1368   1.403       .  A
C1368      H1373   1.083       .  S
C1369      C1479   1.486       .  S
C1369      C1370   1.405       .  A
C1370      C1371   1.404       .  A
C1370      H1374   1.084       .  S
C1371      C1386   1.483       .  S
C1371      C1372   1.405       .  A
C1372      H1375   1.084       .  S
C1376      C1429   1.491       .  S
C1376      C1377   1.406       .  A
C1376      C1381   1.407       .  A
C1377      C1378   1.400       .  A
C1377      H1382   1.083       .  S
C1378      C1469   1.483       .  S
C1379      C1380   1.405       .  A
C1379      H1383   1.083       .  S
C1380      C1439   1.488       .  S
C1381      H1384   1.083       .  S
C1385      C1386   1.411       .  A
C1385      C1390   1.406       .  A
C1385      F1392   1.357       .  S
C1386      C1387   1.403       .  A
C1387      C1388   1.393       .  A
C1387      F1394   1.358       .  S
C1388      C1389   1.406       .  A
C1388      F1393   1.358       .  S
C1389      C1390   1.403       .  A
C1390      F1391   1.357       .  S
C1395      C1396   1.404       .  A
C1395      C1400   1.403       .  A
C1395      F1402   1.358       .  S
C1396      C1397   1.404       .  A
C1397      C1398   1.396       .  A
C1397      F1404   1.358       .  S
C1398      C1399   1.407       .  A
C1398      F1403   1.358       .  S
C1399      C1400   1.411       .  A
C1400      F1401   1.358       .  S
C1405      C1406   1.409       .  A
C1405      C1410   1.407       .  A
C1405      F1412   1.356       .  S
C1406      C1407   1.414       .  A
C1407      C1408   1.387       .  A
C1407      F1414   1.359       .  S
C1408      C1409   1.402       .  A
C1408      F1413   1.359       .  S
C1409      C1410   1.410       .  A
C1410      F1411   1.357       .  S
C1415      C1416   1.409       .  A
C1415      C1420   1.407       .  A
C1415      F1422   1.357       .  S
C1416      C1417   1.404       .  A
C1417      C1418   1.386       .  A
C1417      F1424   1.359       .  S
C1418      C1419   1.412       .  A
C1418      F1423   1.359       .  S
C1419      C1420   1.410       .  A
C1420      F1421   1.357       .  S
C1425      C1426   1.407       .  A
C1425      C1430   1.405       .  A
C1425      F1432   1.356       .  S
C1426      C1427   1.411       .  A
C1427      C1428   1.391       .  A
C1427      F1434   1.359       .  S
C1428      C1429   1.407       .  A
C1428      F1433   1.358       .  S
C1429      C1430   1.412       .  A
C1430      F1431   1.357       .  S
C1435      C1436   1.403       .  A
C1435      C1440   1.396       .  A
C1435      F1442   1.358       .  S
C1436      C1437   1.401       .  A
C1437      C1438   1.401       .  A
C1437      F1444   1.358       .  S
C1438      C1439   1.413       .  A
C1438      F1443   1.358       .  S
C1439      C1440   1.408       .  A
C1440      F1441   1.358       .  S
C1445      C1446   1.405       .  A
C1445      C1450   1.396       .  A
C1445      F1452   1.358       .  S
C1446      C1447   1.412       .  A
C1447      C1448   1.406       .  A
C1447      F1454   1.358       .  S
C1448      C1449   1.403       .  A
C1448      F1453   1.357       .  S
C1449      C1450   1.406       .  A
C1450      F1451   1.357       .  S
C1455      C1456   1.405       .  A
C1455      C1460   1.407       .  A
C1455      F1462   1.357       .  S
C1456      C1457   1.396       .  A
C1457      C1458   1.393       .  A
C1457      F1464   1.359       .  S
C1458      C1459   1.417       .  A
C1458      F1463   1.357       .  S
C1459      C1460   1.411       .  A
C1460      F1461   1.357       .  S
C1465      C1466   1.408       .  A
C1465      C1470   1.398       .  A
C1465      F1472   1.358       .  S
C1467      C1468   1.398       .  A
C1467      F1474   1.358       .  S
C1468      F1473   1.358       .  S
C1469      C1470   1.407       .  A
C1470      F1471   1.358       .  S
C1475      C1476   1.411       .  A
C1475      C1480   1.401       .  A
C1475      F1482   1.358       .  S
C1476      C1477   1.410       .  A
C1477      C1478   1.396       .  A
C1477      F1484   1.358       .  S
C1478      C1479   1.406       .  A
C1479      C1480   1.408       .  A
C1480      F1481   1.358       .  S
C1485      C1486   1.411       .  A
C1485      C1490   1.398       .  A
C1485      F1492   1.358       .  S
C1487      C1488   1.402   1_545  A
C1487      F1494   1.358   1_545  S
C1488      F1493   1.358       .  S
C1489      C1490   1.406       .  A
C1490      F1491   1.358       .  S
C1495      C1496   1.404       .  A
C1495      C1500   1.400       .  A
C1495      F1502   1.358       .  S
C1497      C1498   1.394       .  A
C1497      F1504   1.358       .  S
C1498      F1503   1.358       .  S
C1499      C1500   1.410       .  A
C1500      F1501   1.358       .  S
C1505      C1506   1.397   1_655  A
C1505      C1510   1.392       .  A
C1505      F1512   1.359       .  S
C1507      C1508   1.404       .  A
C1507      F1514   1.357       .  S
C1508      C1509   1.407       .  A
C1508      F1513   1.357       .  S
C1510      F1511   1.357       .  S
C1515      C1516   1.406       .  A
C1515      C1520   1.404       .  A
C1515      F1522   1.357       .  S
C1517      C1518   1.394       .  A
C1517      F1524   1.358       .  S
C1518      F1523   1.358       .  S
C1519      C1520   1.407       .  A
C1520      F1521   1.358       .  S
C1525      C1526   1.397   1_655  A
C1525      C1530   1.388       .  A
C1525      F1532   1.359       .  S
C1527      C1528   1.405       .  A
C1527      F1534   1.358       .  S
C1528      C1529   1.413       .  A
C1528      F1533   1.357       .  S
C1530      F1531   1.358       .  S
C1535      C1540   1.395       .  A
C1535      F1542   1.358       .  S
C1536      C1537   1.409       .  A
C1537      C1538   1.400       .  A
C1537      F1544   1.358       .  S
C1538      C1539   1.402       .  A
C1538      F1543   1.358       .  S
C1540      F1541   1.359       .  S
C1545      C1546   1.409       .  A
C1545      C1550   1.411       .  A
C1545      F1552   1.356       .  S
C1547      C1548   1.387       .  A
C1547      F1554   1.359       .  S
C1548      C1549   1.405       .  A
C1548      F1553   1.359       .  S
C1550      F1551   1.357       .  S
C1555      C1556   1.406       .  A
C1555      C1560   1.390       .  A
C1555      F1562   1.359       .  S
C1556      C1557   1.411       .  A
C1557      C1558   1.408       .  A
C1557      F1564   1.357       .  S
C1558      C1559   1.410       .  A
C1558      F1563   1.358       .  S
C1559      C1560   1.410       .  A
C1560      F1561   1.359       .  S
C1565      C1570   1.392       .  A
C1565      F1572   1.359       .  S
C1566      C1567   1.409       .  A
C1567      C1568   1.409       .  A
C1567      F1574   1.356       .  S
C1568      F1573   1.357       .  S
C1569      C1570   1.406       .  A
C1570      F1571   1.358       .  S
C1575      C1576   1.402       .  A
C1575      C1580   1.403       .  A
C1575      F1582   1.358       .  S
C1576      C1577   1.403       .  A
C1577      C1578   1.397       .  A
C1578      C1579   1.409       .  A
C1579      C1580   1.413       .  A
C1580      F1581   1.358       .  S
