geometry optimzed in LAMMPS
_audit_creation_date              2020-11-30 
_audit_creation_method            'lammps2cif' 
_symmetry_space_group_name_H-M    'P1' 
_symmetry_Int_Tables_number       1 
_symmetry_cell_setting            triclinic 
loop_ 
_symmetry_equiv_pos_as_xyz 
  x,y,z 
_cell_length_a                    21.12117425 
_cell_length_b                    22.234848531307957 
_cell_length_c                    42.596372618083265 
_cell_angle_alpha                 91.88247194904734 
_cell_angle_beta                  91.36892833020931 
_cell_angle_gamma                 89.90868061208455 
loop_ 
_atom_site_label 
_atom_site_type_symbol 
_atom_site_fract_x 
_atom_site_fract_y 
_atom_site_fract_z 
_atom_site_charge 
O1          O  0.43235670  0.41739760  0.20081364    -0.80300
O2          O  0.54602808  0.64894462  0.22816107    -0.80300
O3          O  0.37146562  0.55767262  0.23031781    -0.80300
O4          O  0.63401655  0.44930871  0.23842766    -0.80200
O5          O  0.45830528  0.56927247  0.20327208    -0.80300
O6          O  0.56060081  0.42575217  0.20340036    -0.80300
O7          O  0.60109067  0.56439744  0.22265316    -0.80300
O8          O  0.35837111  0.43595415  0.23493963    -0.80300
C9          C  0.37520500  0.41456926  0.20835391     1.09400
C10         C  0.59230875  0.62071388  0.21646482     1.09300
C11         C  0.39916414  0.57695681  0.20619905     1.09500
C12         C  0.61788549  0.42450565  0.21217753     1.09300
O13         O  0.56160456  0.37756161  0.26649476    -0.80300
O14         O  0.44217819  0.62965386  0.26203584    -0.80300
O15         O  0.42376435  0.44434126  0.29600372    -0.80300
O16         O  0.65257664  0.54670841  0.28019509    -0.80200
O17         O  0.56152753  0.59621862  0.28407961    -0.80300
O18         O  0.43384400  0.36695455  0.26388707    -0.80300
O19         O  0.57069490  0.45833289  0.29760581    -0.80200
O20         O  0.42820483  0.56046010  0.29468335    -0.80300
Co21       Co  0.49701566  0.40251786  0.23372712     1.51500
Co22       Co  0.51017635  0.57727701  0.24206062     1.51700
Co23       Co  0.40031491  0.49933551  0.26371831     1.51600
Co24       Co  0.57932018  0.51109310  0.26115462     1.51500
O25         O  0.48945659  0.49024796  0.24877943    -1.42200
C26         C  0.57490078  0.40159262  0.29340187     1.09400
C27         C  0.41654142  0.61266715  0.28663367     1.09500
C28         C  0.41751567  0.38929475  0.29050510     1.09400
C29         C  0.62094097  0.59040225  0.29160709     1.09400
O30         O  0.87445814  0.45356219  0.01580537    -0.80300
O31         O  0.10329889  0.56278264  0.04517035    -0.80300
O32         O  0.06469380  0.37048822  0.01217517    -0.80300
O33         O  0.97185825  0.61187331  0.03355395    -0.80200
O34         O  0.09824784  0.44117850  0.04538885    -0.80300
O35         O  0.88418131  0.57090674  0.01766559    -0.80300
O36         O  0.08346941  0.63453364  0.01294360    -0.80300
O37         O  0.95841502  0.40929863  0.03173301    -0.80300
C38         C  0.90072162  0.41910672  0.03479362     1.09400
C39         C  0.11093265  0.61645785  0.03781771     1.09300
C40         C  0.09163464  0.38591632  0.03818716     1.09500
C41         C  0.91401581  0.60451397  0.03705849     1.09300
O42         O  0.93029399  0.57447918  0.45357520    -0.80300
O43         O  0.13482854  0.43623541  0.48061159    -0.80300
O44         O  0.95534819  0.35568095  0.47346597    -0.80300
O45         O  0.05325588  0.56977413  0.45346183    -0.80200
O46         O  0.14186210  0.55779033  0.47962130    -0.80300
O47         O  0.92156722  0.44065762  0.45244688    -0.80300
O48         O  0.97378813  0.65791706  0.47478154    -0.80200
O49         O  0.04803611  0.42894176  0.45191881    -0.80300
Co50       Co  0.91601163  0.50951151  0.98668612     1.51500
Co51       Co  0.11280678  0.50001534  0.01248308     1.51700
Co52       Co  0.99905384  0.42306418  0.99148665     1.51600
Co53       Co  0.00890375  0.58810330  0.99311603     1.51500
O54         O  0.01593486  0.50507139  0.00555574    -1.42200
C55         C  0.93591083  0.63287237  0.45468575     1.09400
C56         C  0.10679964  0.41921085  0.45526485     1.09500
C57         C  0.91785528  0.38254331  0.45480497     1.09400
C58         C  0.11262988  0.57490714  0.45504635     1.09400
C59         C  0.72331260  0.24930092  0.37824023    -0.02600
O60         O  0.46221117  0.12379046  0.47039367    -0.80300
O61         O  0.44197620  0.89277875  0.02550910    -0.80300
O62         O  0.40491485  0.92786774  0.45851608    -0.80300
O63         O  0.46640946  0.06022643  0.06712674    -0.80200
O64         O  0.47534072  0.86014896  0.47106109    -0.80300
O65         O  0.42199286  0.09215953  0.02511728    -0.80300
O66         O  0.47357375  0.94125829  0.06737351    -0.80300
O67         O  0.40080278  0.04822428  0.45846964    -0.80300
C68         C  0.41352441  0.10289129  0.45609465     1.09400
C69         C  0.43758528  0.90284575  0.05421179     1.09300
C70         C  0.42146910  0.87351381  0.45913788     1.09500
C71         C  0.42165506  0.08822949  0.05421880     1.09300
O72         O  0.53642198  0.15149926  0.02405855    -0.80300
O73         O  0.59488974  0.92770659  0.47845754    -0.80300
O74         O  0.52984465  0.05223251  0.43711272    -0.80300
O75         O  0.60035763  0.93864531  0.04158890    -0.80200
O76         O  0.56189306  0.85100346  0.02271942    -0.80300
O77         O  0.58385118  0.07270089  0.48061885    -0.80300
O78         O  0.59118780  0.07230523  0.04087993    -0.80200
O79         O  0.53374815  0.92960963  0.43686410    -0.80300
Co80       Co  0.50472144  0.07920227  0.50502464     1.51500
Co81       Co  0.51882243  0.91475160  0.50406282     1.51700
Co82       Co  0.46824525  0.98991019  0.45102415     1.51600
Co83       Co  0.52844871  0.00204711  0.04761333     1.51500
O84         O  0.48599780  0.99471515  0.49879628    -1.42200
C85         C  0.58273191  0.13020015  0.03974810     1.09400
C86         C  0.58612559  0.91491646  0.44963182     1.09500
C87         C  0.57727019  0.07650302  0.45121159     1.09400
C88         C  0.60149051  0.88008485  0.04035597     1.09400
C89         C  0.24763344  0.74206412  0.37343866    -0.02600
O90         O  0.93018298  0.09823183  0.29584163    -0.80300
O91         O  0.03866696  0.86391515  0.27559376    -0.80300
O92         O  0.86589816  0.95714946  0.26901378    -0.80300
O93         O  0.12947970  0.06068669  0.26684303    -0.80200
O94         O  0.95502874  0.94832856  0.29691903    -0.80300
O95         O  0.05199643  0.08078327  0.29692935    -0.80300
O96         O  0.09042380  0.94701041  0.28749173    -0.80300
O97         O  0.85265235  0.07925994  0.26209084    -0.80300
C98         C  0.87262619  0.10179221  0.28826935     1.09400
C99         C  0.08251916  0.88977500  0.29129009     1.09300
C100        C  0.89586491  0.94131974  0.29384484     1.09500
C101        C  0.10888966  0.08742602  0.29122039     1.09300
O102        O  0.06044090  0.12474093  0.23145152    -0.80300
O103        O  0.93731015  0.88294397  0.23910243    -0.80300
O104        O  0.91046467  0.06716147  0.20138765    -0.80300
O105        O  0.15014321  0.95385995  0.23269418    -0.80200
O106        O  0.05814267  0.91225508  0.21966250    -0.80300
O107        O  0.93268157  0.14467942  0.23282139    -0.80300
O108        O  0.07355318  0.03730516  0.20607879    -0.80200
O109        O  0.91548249  0.94914421  0.20468714    -0.80300
Co110      Co  0.99406080  0.10738632  0.26401805     1.51500
Co111      Co  0.00540279  0.93537308  0.25939411     1.51700
Co112      Co  0.89174700  0.01298894  0.23474948     1.51600
Co113      Co  0.07559538  0.99415028  0.24557827     1.51500
O114        O  0.98348716  0.02070217  0.24987634    -1.42200
C115        C  0.08039313  0.09367008  0.20783588     1.09400
C116        C  0.91063841  0.89642526  0.21352773     1.09500
C117        C  0.90972980  0.12294049  0.20697646     1.09400
C118        C  0.11912430  0.91391849  0.21694043     1.09400
C119        C  0.75822896  0.73931005  0.12773459    -0.02600
C120        C  0.23784600  0.23746087  0.12632490    -0.02600
C121        C  0.75598374  0.27152245  0.12193929    -0.02600
C122        C  0.26728318  0.75993772  0.12989007    -0.02600
C123        C  0.25684790  0.25309371  0.37405094    -0.02600
C124        C  0.76285423  0.76837132  0.37045378    -0.02600
C125        C  0.20798579  0.21639898  0.35247391    -0.00300
C126        C  0.20539119  0.22335139  0.31952792    -0.12100
C127        C  0.17569058  0.18118023  0.29911844     0.02000
C128        C  0.14528858  0.13111827  0.31131744    -0.00400
C129        C  0.13579663  0.13126499  0.34383592    -0.12100
C130        C  0.16325712  0.17536250  0.36413425     0.01900
H131        H  0.22662254  0.26196415  0.30913366     0.14800
H132        H  0.10549815  0.09739614  0.35340403     0.14800
C133        C  0.14588586  0.17510617  0.39666720     0.36500
C134        C  0.17099990  0.19546137  0.26643163     0.36400
N135        N  0.12954533  0.17392612  0.42237165    -0.43900
N136        N  0.16696114  0.21117171  0.24086876    -0.43900
C137        C  0.11964535  0.12254225  0.18435563    -0.00300
C138        C  0.18535464  0.12298794  0.18871850    -0.12100
C139        C  0.22424303  0.15574372  0.16924408     0.02000
C140        C  0.19708024  0.19255359  0.14549871    -0.00400
C141        C  0.13123230  0.18363412  0.13872331    -0.12100
C142        C  0.09343488  0.14833356  0.15757359     0.01900
H143        H  0.20635234  0.09873191  0.20807842     0.14800
H144        H  0.10832007  0.20281233  0.11846461     0.14800
C145        C  0.02978841  0.13310095  0.14749072     0.36500
C146        C  0.29146572  0.15176343  0.17560279     0.36400
N147        N  0.97985878  0.11689695  0.13944135    -0.43900
N148        N  0.34485783  0.14643247  0.18159281    -0.43900
C149        C  0.86504248  0.90264782  0.31620674    -0.00300
C150        C  0.89055942  0.84529939  0.31990498    -0.12100
C151        C  0.85911780  0.80166877  0.33650334     0.02000
C152        C  0.80211472  0.81638819  0.35272313    -0.00400
C153        C  0.78219641  0.87761961  0.35165407    -0.12100
C154        C  0.80981818  0.91860289  0.33185970     0.01900
H155        H  0.93319901  0.83280845  0.30746984     0.14800
H156        H  0.74335007  0.89492698  0.36502729     0.14800
C157        C  0.77881573  0.97559996  0.32714438     0.36500
C158        C  0.88583909  0.74202722  0.33376106     0.36400
N159        N  0.75200715  0.02019174  0.32309822    -0.43900
N160        N  0.91023198  0.69569721  0.33039138    -0.43900
C161        C  0.22664075  0.79507594  0.15490348    -0.00300
C162        C  0.15957209  0.79648900  0.15270178    -0.12100
C163        C  0.12381836  0.83660803  0.17127052     0.02000
C164        C  0.15330313  0.87059930  0.19598888    -0.00400
C165        C  0.21827918  0.86237717  0.20162240    -0.12100
C166        C  0.25497488  0.82619889  0.18160815     0.01900
H167        H  0.13399120  0.76852672  0.13590752     0.14800
H168        H  0.24140343  0.88615629  0.22132753     0.14800
C169        C  0.32197522  0.82551162  0.18902482     0.36500
C170        C  0.05841771  0.84573877  0.16212414     0.36400
N171        N  0.37495911  0.82678413  0.19658131    -0.43900
N172        N  0.00678261  0.85392479  0.15365398    -0.43900
C173        C  0.80050684  0.77844456  0.15140412    -0.00300
C174        C  0.77384227  0.83138660  0.16482802    -0.12100
C175        C  0.80883102  0.87018621  0.18496650     0.02000
C176        C  0.87019027  0.85385919  0.19510033    -0.00400
C177        C  0.89400034  0.79772014  0.18609219    -0.12100
C178        C  0.86095031  0.76020605  0.16433962     0.01900
H179        H  0.72598422  0.84430379  0.15843185     0.14800
H180        H  0.94009388  0.78409054  0.19519137     0.14800
C181        C  0.89113177  0.70306960  0.15741751     0.36500
C182        C  0.78040458  0.92654157  0.19508670     0.36400
N183        N  0.91606120  0.65748895  0.15235599    -0.43900
N184        N  0.75790615  0.97184540  0.20306487    -0.43900
C185        C  0.79732863  0.22787122  0.14200230    -0.00300
C186        C  0.84529378  0.25536324  0.16164931    -0.12100
C187        C  0.88380658  0.22269940  0.18215713     0.02000
C188        C  0.87454299  0.16059244  0.18438748    -0.00400
C189        C  0.82760577  0.13245750  0.16529525    -0.12100
C190        C  0.78892960  0.16437265  0.14464839     0.01900
H191        H  0.85359437  0.30327670  0.16052913     0.14800
H192        H  0.81921424  0.08459396  0.16731139     0.14800
C193        C  0.73951048  0.12870755  0.12930378     0.36500
C194        C  0.93374939  0.25377390  0.19977070     0.36400
N195        N  0.70050711  0.09780937  0.11806647    -0.43900
N196        N  0.97412357  0.27845226  0.21376228    -0.43900
C197        C  0.20557918  0.78618711  0.35367116    -0.00300
C198        C  0.16468666  0.75816366  0.33080927    -0.12100
C199        C  0.12344244  0.79030091  0.31152342     0.02000
C200        C  0.12322593  0.85400708  0.31307236    -0.00400
C201        C  0.16578452  0.88311184  0.33424256    -0.12100
C202        C  0.20714151  0.85064965  0.35398280     0.01900
H203        H  0.16275720  0.70943465  0.32892072     0.14800
H204        H  0.16796079  0.93183476  0.33485682     0.14800
C205        C  0.25343569  0.88650704  0.37127105     0.36500
C206        C  0.08213276  0.75537049  0.29041361     0.36400
N207        N  0.29090573  0.91686129  0.38410187    -0.43900
N208        N  0.04896460  0.72712945  0.27370381    -0.43900
C209        C  0.62754959  0.17178088  0.05623853    -0.00300
C210        C  0.60299034  0.21896705  0.07468168    -0.12100
C211        C  0.64230330  0.25492085  0.09439317     0.02000
C212        C  0.70819812  0.24064069  0.09790077    -0.00400
C213        C  0.73301536  0.19983849  0.07502831    -0.12100
C214        C  0.69349347  0.16463838  0.05496057     0.01900
H215        H  0.55235383  0.22761046  0.07384029     0.14800
H216        H  0.78356929  0.19194117  0.07442678     0.14800
C217        C  0.72157927  0.12139404  0.03343150     0.36500
C218        C  0.61309949  0.30845665  0.10764111     0.36400
N219        N  0.74396472  0.08691200  0.01602820    -0.43900
N220        N  0.58858791  0.35130394  0.11767348    -0.43900
C221        C  0.37494605  0.12216109  0.07341495    -0.00300
C222        C  0.39796024  0.16633780  0.09462303    -0.12100
C223        C  0.35750699  0.20254052  0.11283813     0.02000
C224        C  0.28965055  0.19711511  0.10915468    -0.00400
C225        C  0.26821997  0.14723714  0.08998832    -0.12100
C226        C  0.30937435  0.11175043  0.07154400     0.01900
H227        H  0.44891217  0.17227722  0.09720096     0.14800
H228        H  0.21792234  0.13737236  0.08833952     0.14800
C229        C  0.28333160  0.06414002  0.05136045     0.36500
C230        C  0.39050804  0.23854794  0.13680499     0.36400
N231        N  0.26238191  0.02591037  0.03522064    -0.43900
N232        N  0.41974508  0.26537712  0.15585198    -0.43900
C233        C  0.30918302  0.80216950  0.11019157    -0.00300
C234        C  0.34571091  0.77357727  0.08645194    -0.12100
C235        C  0.38713820  0.80533145  0.06805853     0.02000
C236        C  0.39273292  0.86804893  0.07236365    -0.00400
C237        C  0.35440861  0.89803518  0.09399903    -0.12100
C238        C  0.31108149  0.86682733  0.11185278     0.01900
H239        H  0.34468567  0.72507802  0.08341445     0.14800
H240        H  0.35656104  0.94681345  0.09597654     0.14800
C241        C  0.26657138  0.90493866  0.12825962     0.36500
C242        C  0.42688961  0.77161345  0.04663715     0.36400
N243        N  0.23128452  0.93770496  0.14028549    -0.43900
N244        N  0.45895536  0.74444646  0.02966942    -0.43900
C245        C  0.71275000  0.80176993  0.39236068    -0.00300
C246        C  0.72202340  0.80845616  0.42541506    -0.12100
C247        C  0.68538299  0.84801423  0.44403098     0.02000
C248        C  0.63151413  0.87655700  0.43106950    -0.00400
C249        C  0.61672262  0.86400176  0.39926652    -0.12100
C250        C  0.65646749  0.82949046  0.37990623     0.01900
H251        H  0.75845433  0.78448180  0.43764203     0.14800
H252        H  0.57460080  0.88365608  0.38876375     0.14800
C253        C  0.63936715  0.82884764  0.34684170     0.36500
C254        C  0.70700828  0.85969482  0.47598005     0.36400
N255        N  0.62399664  0.83046069  0.32062078    -0.43900
N256        N  0.72741560  0.86908937  0.00108430    -0.43900
C257        C  0.37528073  0.13967549  0.43460180    -0.00300
C258        C  0.39257455  0.19937913  0.43041037    -0.12100
C259        C  0.35633865  0.23639688  0.41112128     0.02000
C260        C  0.30311702  0.21238877  0.39317024    -0.00400
C261        C  0.29337573  0.14969151  0.39431139    -0.12100
C262        C  0.32393841  0.11527382  0.41669309     0.01900
H263        H  0.43275868  0.21840932  0.44363783     0.14800
H264        H  0.26024598  0.12614463  0.37894893     0.14800
C265        C  0.29687559  0.05725598  0.42271290     0.36500
C266        C  0.37364342  0.29921697  0.41277124     0.36400
N267        N  0.27413467  0.01194725  0.42881207    -0.43900
N268        N  0.38980427  0.34891724  0.41511258    -0.43900
C269        C  0.72234915  0.77628548  0.10195973    -0.00300
C270        C  0.73786017  0.83701656  0.09622968    -0.12100
C271        C  0.70065970  0.87213943  0.07600372     0.02000
C272        C  0.64930879  0.84573691  0.05879125    -0.00400
C273        C  0.64007819  0.78378052  0.06059598    -0.12100
C274        C  0.67492514  0.74925542  0.08155719     0.01900
H275        H  0.77864703  0.85810970  0.10766413     0.14800
H276        H  0.60216674  0.76210645  0.04681354     0.14800
C277        C  0.65363242  0.68795580  0.08322913     0.36500
C278        C  0.71686361  0.93479340  0.07330329     0.36400
N279        N  0.63137555  0.64044474  0.08313629    -0.43900
N280        N  0.72986717  0.98498975  0.07108815    -0.43900
C281        C  0.37837323  0.82851246  0.44379250    -0.00300
C282        C  0.31293215  0.83800275  0.44576952    -0.12100
C283        C  0.26980058  0.80829528  0.42508160     0.02000
C284        C  0.29222986  0.77080226  0.39992737    -0.00400
C285        C  0.35712831  0.75351605  0.40242769    -0.12100
C286        C  0.40007104  0.78290785  0.42322636     0.01900
H287        H  0.29549739  0.87110082  0.46275678     0.14800
H288        H  0.37591061  0.71757843  0.38768769     0.14800
C289        C  0.46645304  0.76775720  0.42150202     0.36500
C290        C  0.20373156  0.82137548  0.42968290     0.36400
N291        N  0.51954104  0.75527731  0.42004678    -0.43900
N292        N  0.15184182  0.83423921  0.43489126    -0.43900
C293        C  0.76338061  0.21129596  0.35371004    -0.00300
C294        C  0.75675236  0.21809607  0.32072131    -0.12100
C295        C  0.78791854  0.18023351  0.29901467     0.02000
C296        C  0.83104580  0.13672375  0.30967267    -0.00400
C297        C  0.84132520  0.13165851  0.34200143    -0.12100
C298        C  0.80824305  0.16707674  0.36382186     0.01900
H299        H  0.72852151  0.25379079  0.31110914     0.14800
H300        H  0.87515850  0.09862946  0.35037637     0.14800
C301        C  0.81975910  0.15353781  0.39641227     0.36500
C302        C  0.77665229  0.18889474  0.26587756     0.36400
N303        N  0.82948354  0.14061728  0.42218836    -0.43900
N304        N  0.76701538  0.19571417  0.23937062    -0.43900
C305        C  0.61729125  0.11810494  0.43374460    -0.00300
C306        C  0.61831561  0.17920543  0.44302041    -0.12100
C307        C  0.64745779  0.22255054  0.42477326     0.02000
C308        C  0.68204590  0.20474444  0.39758708    -0.00400
C309        C  0.67450059  0.14365106  0.38722042    -0.12100
C310        C  0.64413113  0.10102706  0.40501173     0.01900
H311        H  0.59361549  0.19360583  0.46396880     0.14800
H312        H  0.69167714  0.12785650  0.36475042     0.14800
C313        C  0.64190370  0.03976349  0.39296728     0.36500
C314        C  0.64052656  0.28446391  0.43525535     0.36400
N315        N  0.64129692  0.99118857  0.38246560    -0.43900
N316        N  0.63309825  0.33306995  0.44501040    -0.43900
C317        C  0.19269835  0.27175706  0.10272523    -0.00300
C318        C  0.19074551  0.25853185  0.06984433    -0.12100
C319        C  0.15003671  0.28908358  0.04930109     0.02000
C320        C  0.11836894  0.34112454  0.05991195    -0.00400
C321        C  0.11776551  0.35415402  0.09220603    -0.12100
C322        C  0.15026918  0.31805027  0.11357252     0.01900
H323        H  0.21960921  0.22446549  0.05917225     0.14800
H324        H  0.09043216  0.39230499  0.10089870     0.14800
C325        C  0.13800154  0.33055753  0.14637316     0.36500
C326        C  0.13871916  0.26380739  0.01807308     0.36400
N327        N  0.12661475  0.34152791  0.17238795    -0.43900
N328        N  0.12692764  0.24181553  0.49364816    -0.43900
C329        C  0.22600703  0.72418756  0.10397091    -0.00300
C330        C  0.23863587  0.66241325  0.09746302    -0.12100
C331        C  0.20369226  0.62811775  0.07541727     0.02000
C332        C  0.15400539  0.65458977  0.05798611    -0.00400
C333        C  0.14567408  0.71692925  0.06084084    -0.12100
C334        C  0.18198194  0.75199711  0.08274848     0.01900
H335        H  0.27800419  0.63966013  0.10854028     0.14800
H336        H  0.11016767  0.73830315  0.04619701     0.14800
C337        C  0.17136890  0.81612497  0.08269370     0.36500
C338        C  0.22244204  0.56589158  0.07046018     0.36400
N339        N  0.16059367  0.86710051  0.08190709    -0.43900
N340        N  0.23789480  0.51626052  0.06667525    -0.43900
C341        C  0.80100391  0.69773263  0.10685146    -0.00300
C342        C  0.84988340  0.72748820  0.09105730    -0.12100
C343        C  0.89028028  0.69728444  0.07038772     0.02000
C344        C  0.87990805  0.63618951  0.06264010    -0.00400
C345        C  0.83237593  0.60557520  0.07792951    -0.12100
C346        C  0.79390523  0.63462255  0.10019353     0.01900
H347        H  0.85733567  0.77524305  0.09537695     0.14800
H348        H  0.82517163  0.55811363  0.07227788     0.14800
C349        C  0.74692501  0.59715566  0.11372712     0.36500
C350        C  0.94077516  0.73084426  0.05686527     0.36400
N351        N  0.70943529  0.56532956  0.12355216    -0.43900
N352        N  0.98154233  0.75790780  0.04642640    -0.43900
C353        C  0.14556231  0.61041053  0.43101955    -0.00300
C354        C  0.11110896  0.65547510  0.41599215    -0.12100
C355        C  0.14006986  0.69823827  0.39750527     0.02000
C356        C  0.20691714  0.69531650  0.39182998    -0.00400
C357        C  0.24040048  0.64779650  0.40643954    -0.12100
C358        C  0.21093689  0.60613843  0.42553164     0.01900
H359        H  0.06083054  0.66001856  0.42045372     0.14800
H360        H  0.29093775  0.64337182  0.40310311     0.14800
C361        C  0.24901525  0.55896307  0.43886117     0.36500
C362        C  0.09829037  0.74616736  0.38802905     0.36400
N363        N  0.27961255  0.52101651  0.94937601    -0.43900
N364        N  0.06293392  0.78372019  0.38126905    -0.43900
C365        C  0.81285088  0.73046134  0.39011339    -0.00300
C366        C  0.85545608  0.76202455  0.41101183    -0.12100
C367        C  0.89727705  0.73241507  0.43161278     0.02000
C368        C  0.89970051  0.66885999  0.43119295    -0.00400
C369        C  0.86427477  0.63747842  0.40789610    -0.12100
C370        C  0.82402959  0.66664274  0.38675221     0.01900
H371        H  0.85393380  0.81083404  0.41224499     0.14800
H372        H  0.86934705  0.58895260  0.40542555     0.14800
C373        C  0.80495122  0.62895065  0.35987804     0.36500
C374        C  0.93603277  0.76883251  0.45312161     0.36400
N375        N  0.79249806  0.59724187  0.33852255    -0.43900
N376        N  0.96718227  0.79823024  0.47024794    -0.43900
C377        C  0.21610917  0.29514613  0.39635830    -0.00300
C378        C  0.17257474  0.33596020  0.38237817    -0.12100
C379        C  0.13550662  0.37654406  0.40044980     0.02000
C380        C  0.14238001  0.37865033  0.43338585    -0.00400
C381        C  0.18420572  0.33830196  0.44736187    -0.12100
C382        C  0.21707410  0.29470826  0.43003328     0.01900
H383        H  0.16816895  0.33664122  0.35696333     0.14800
H384        H  0.18858954  0.33849382  0.47281085     0.14800
C385        C  0.24327421  0.24758891  0.44894826     0.36500
C386        C  0.09292511  0.41710624  0.38474240     0.36400
N387        N  0.26161451  0.21066254  0.46542281    -0.43900
N388        N  0.05868582  0.44980731  0.37227326    -0.43900
C389        C  0.79747682  0.31092164  0.10016803    -0.00300
C390        C  0.76778236  0.36001300  0.08527799    -0.12100
C391        C  0.79997125  0.39719927  0.06493465     0.02000
C392        C  0.86443752  0.38633557  0.05859493    -0.00400
C393        C  0.89409918  0.33739480  0.07270782    -0.12100
C394        C  0.86122631  0.29830681  0.09154279     0.01900
H395        H  0.71848855  0.36964462  0.08969976     0.14800
H396        H  0.94264743  0.32632252  0.06688574     0.14800
C397        C  0.89284829  0.24209848  0.09687100     0.36500
C398        C  0.76478552  0.44536760  0.05073197     0.36400
N399        N  0.91918757  0.19701232  0.09985078    -0.43900
N400        N  0.73594099  0.48365137  0.03940899    -0.43900
C401        C  0.77541403  0.28442271  0.39841737    -0.00300
C402        C  0.78626957  0.27299819  0.43058788    -0.12100
C403        C  0.83288235  0.30324843  0.44882384     0.02000
C404        C  0.87117586  0.34698066  0.43542097    -0.00400
C405        C  0.86336850  0.35749738  0.40340055    -0.12100
C406        C  0.81806444  0.32569422  0.38472051     0.01900
H407        H  0.76038139  0.23856386  0.44197917     0.14800
H408        H  0.89334071  0.39044341  0.39280353     0.14800
C409        C  0.81504967  0.33922615  0.35178486     0.36500
C410        C  0.83914029  0.28868020  0.48156528     0.36400
N411        N  0.81322999  0.35126071  0.32554972    -0.43900
N412        N  0.84324338  0.27572081  0.00761813    -0.43900
C413        C  0.65268640  0.63677302  0.31176229    -0.00300
C414        C  0.68714334  0.68061501  0.29697358    -0.12100
C415        C  0.72117130  0.72514294  0.31407476     0.05200
C416        C  0.72258809  0.72566586  0.34780311    -0.00400
C417        C  0.68202578  0.68403543  0.36213928    -0.12100
C418        C  0.64843173  0.63951313  0.34456119     0.01900
H419        H  0.68640349  0.68071115  0.27155235     0.14800
H420        H  0.67976302  0.68402842  0.38753709     0.14800
C421        C  0.61277689  0.59526700  0.36073390     0.36500
C422        C  0.74803783  0.77072993  0.29506578     0.36400
N423        N  0.58452591  0.55956223  0.37373195    -0.43900
N424        N  0.76732965  0.80635790  0.27853574    -0.43900
C425        C  0.38390589  0.35437473  0.31412199    -0.00300
C426        C  0.38008924  0.29182061  0.31077322    -0.12100
C427        C  0.34255393  0.25867379  0.33062279     0.02000
C428        C  0.30223654  0.28863261  0.35285337    -0.00400
C429        C  0.30854232  0.35144857  0.35653264    -0.12100
C430        C  0.35101951  0.38349557  0.33906218     0.01900
H431        H  0.40619244  0.26860485  0.29244909     0.14800
H432        H  0.28429468  0.37613114  0.37491177     0.14800
C433        C  0.36125708  0.44571798  0.34887992     0.36500
C434        C  0.34465367  0.19392382  0.32634440     0.36400
N435        N  0.36990687  0.49498466  0.35752476    -0.43900
N436        N  0.34652198  0.14219325  0.32246141    -0.43900
C437        C  0.72289280  0.31024567  0.14825466    -0.00300
C438        C  0.74304244  0.36979756  0.15529243    -0.12100
C439        C  0.71271722  0.40708426  0.17726246     0.02000
C440        C  0.66128870  0.38553434  0.19382189    -0.00400
C441        C  0.64567380  0.32457012  0.19013574    -0.12100
C442        C  0.67686429  0.28646095  0.16864866     0.01900
H443        H  0.78358845  0.38825458  0.14391455     0.14800
H444        H  0.60741116  0.30684401  0.20368678     0.14800
C445        C  0.65643215  0.22457159  0.16747750     0.36500
C446        C  0.73627483  0.46716130  0.18119140     0.36400
N447        N  0.63699663  0.17601523  0.16816725    -0.43900
N448        N  0.76044196  0.51365175  0.18226253    -0.43900
C449        C  0.36534036  0.61860910  0.18467075    -0.00300
C450        C  0.40159903  0.66037588  0.16892656    -0.12100
C451        C  0.37408390  0.70780337  0.15251476     0.02000
C452        C  0.30654270  0.71338973  0.14990029    -0.00400
C453        C  0.27074380  0.67141852  0.16664282    -0.12100
C454        C  0.29890760  0.62436402  0.18317507     0.01900
H455        H  0.45289772  0.65810841  0.17089629     0.14800
H456        H  0.21945377  0.67412671  0.16567045     0.14800
C457        C  0.25812749  0.58164421  0.19755931     0.36500
C458        C  0.41866179  0.75156922  0.14210710     0.36400
N459        N  0.22549665  0.54714443  0.20891865    -0.43900
N460        N  0.45604364  0.78591597  0.13457586    -0.43900
C461        C  0.63408702  0.65161689  0.19475724    -0.00300
C462        C  0.60851143  0.69499445  0.17509462    -0.12100
C463        C  0.64675155  0.72660316  0.15487638     0.02000
C464        C  0.71128076  0.70854209  0.15021396    -0.00400
C465        C  0.73674469  0.66835573  0.17231071    -0.12100
C466        C  0.69984578  0.64271501  0.19518754     0.01900
H467        H  0.55882679  0.70692756  0.17689212     0.14800
H468        H  0.78643097  0.65733772  0.17225317     0.14800
C469        C  0.73164444  0.61333752  0.22085562     0.36500
C470        C  0.61929313  0.78146519  0.14336443     0.36400
N471        N  0.75820264  0.59027449  0.24128103    -0.43900
N472        N  0.59693426  0.82585148  0.13490452    -0.43900
C473        C  0.60108118  0.36335353  0.31901818    -0.00300
C474        C  0.63542766  0.39071334  0.34414536    -0.12100
C475        C  0.67028609  0.35673369  0.36583135     0.02000
C476        C  0.67420966  0.29251045  0.36179232    -0.00400
C477        C  0.62962247  0.26587738  0.34026842    -0.12100
C478        C  0.59547697  0.29987743  0.31838863     0.01900
H479        H  0.63673051  0.43945452  0.34644395     0.14800
H480        H  0.62646509  0.21718559  0.33819341     0.14800
C481        C  0.55741883  0.26754174  0.29484465     0.36500
C482        C  0.69833174  0.39087630  0.39199196     0.36400
N483        N  0.52765791  0.24098682  0.27591927    -0.43900
N484        N  0.71988399  0.41981766  0.41265869    -0.43900
C485        C  0.36802818  0.64794269  0.30367154    -0.00300
C486        C  0.37734944  0.70889394  0.31042162    -0.12100
C487        C  0.33772062  0.74062602  0.33111177     0.02000
C488        C  0.28856699  0.71021576  0.34717823    -0.00400
C489        C  0.27520257  0.65050975  0.33660808    -0.12100
C490        C  0.31355667  0.61994981  0.31499354     0.01900
H491        H  0.41753136  0.73125672  0.30055774     0.14800
H492        H  0.23410008  0.62720846  0.34467789     0.14800
C493        C  0.29412777  0.56068635  0.30359388     0.36500
C494        C  0.35434556  0.80288926  0.33688649     0.36400
N495        N  0.27807496  0.51355696  0.29421414    -0.43900
N496        N  0.37239126  0.85178151  0.34048418    -0.43900
C497        C  0.26894493  0.28892498  0.14788789    -0.00300
C498        C  0.26106167  0.29142715  0.18086601    -0.12100
C499        C  0.29112623  0.33469474  0.20058417     0.02000
C500        C  0.33082590  0.37804398  0.18794750    -0.00400
C501        C  0.33419807  0.38055308  0.15518055    -0.12100
C502        C  0.30255949  0.33815175  0.13518551     0.01900
H503        H  0.23017521  0.26058356  0.19198963     0.14800
H504        H  0.36339975  0.41472412  0.14513789     0.14800
C505        C  0.30924666  0.34453799  0.10177442     0.36500
C506        C  0.28176905  0.33183791  0.23396293     0.36400
N507        N  0.31450288  0.35042936  0.07506680    -0.43900
N508        N  0.27342067  0.32963743  0.26063450    -0.43900
O509        O  0.43235676  0.41739696  0.70081398    -0.80300
O510        O  0.54602622  0.64894436  0.72816076    -0.80300
O511        O  0.37146421  0.55767130  0.73031803    -0.80300
O512        O  0.63401653  0.44930932  0.73842804    -0.80200
O513        O  0.45830384  0.56927106  0.70327226    -0.80300
O514        O  0.56060082  0.42575274  0.70340075    -0.80300
O515        O  0.60108997  0.56439775  0.72265351    -0.80300
O516        O  0.35837113  0.43595278  0.73494003    -0.80300
C517        C  0.37520507  0.41456828  0.70835426     1.09400
C518        C  0.59230745  0.62071395  0.71646482     1.09300
C519        C  0.39916269  0.57695547  0.70619925     1.09500
C520        C  0.61788552  0.42450635  0.71217786     1.09300
O521        O  0.56160505  0.37756184  0.76649513    -0.80300
O522        O  0.44217661  0.62965312  0.76203582    -0.80300
O523        O  0.42376433  0.44434046  0.79600405    -0.80300
O524        O  0.65257577  0.54670921  0.78019557    -0.80200
O525        O  0.56152648  0.59621934  0.78407962    -0.80300
O526        O  0.43384459  0.36695379  0.76388741    -0.80300
O527        O  0.57069477  0.45833311  0.79760623    -0.80200
O528        O  0.42820313  0.56045971  0.79468359    -0.80300
Co529      Co  0.49701591  0.40251769  0.73372748     1.51500
Co530      Co  0.51017518  0.57727666  0.74206069     1.51700
Co531      Co  0.40031420  0.49933455  0.76371863     1.51600
Co532      Co  0.57931967  0.51109338  0.76115504     1.51500
O533        O  0.48945614  0.49024767  0.74877986    -1.42200
C534        C  0.57490104  0.40159287  0.79340227     1.09400
C535        C  0.41653961  0.61266661  0.78663364     1.09500
C536        C  0.41751595  0.38929390  0.79050542     1.09400
C537        C  0.62093983  0.59040306  0.79160738     1.09400
O538        O  0.87445807  0.45356289  0.51580547    -0.80300
O539        O  0.10329924  0.56278233  0.54517074    -0.80300
O540        O  0.06469315  0.37048812  0.51217567    -0.80300
O541        O  0.97185860  0.61187380  0.53355413    -0.80200
O542        O  0.09824717  0.44117823  0.54538946    -0.80300
O543        O  0.88418167  0.57090738  0.51766562    -0.80300
O544        O  0.08347029  0.63453314  0.51294379    -0.80300
O545        O  0.95841471  0.40929896  0.53173314    -0.80300
C546        C  0.90072139  0.41910733  0.53479371     1.09400
C547        C  0.11093337  0.61645739  0.53781796     1.09300
C548        C  0.09163374  0.38591609  0.53818776     1.09500
C549        C  0.91401608  0.60451460  0.53705857     1.09300
O550        O  0.93029299  0.57447914  0.95357511    -0.80300
O551        O  0.13482865  0.43623625  0.98061091    -0.80300
O552        O  0.95534847  0.35568073  0.97346581    -0.80300
O553        O  0.05325524  0.56977495  0.95346147    -0.80200
O554        O  0.14186148  0.55779139  0.97962094    -0.80300
O555        O  0.92156732  0.44065742  0.95244675    -0.80300
O556        O  0.97378702  0.65791704  0.97478150    -0.80200
O557        O  0.04803589  0.42894162  0.95191844    -0.80300
Co558      Co  0.91601192  0.50951187  0.48668624     1.51500
Co559      Co  0.11280683  0.50001476  0.51248360     1.51700
Co560      Co  0.99905371  0.42306433  0.49148689     1.51600
Co561      Co  0.00890432  0.58810322  0.49311628     1.51500
O562        O  0.01593495  0.50507137  0.50555610    -1.42200
C563        C  0.93590975  0.63287234  0.95468570     1.09400
C564        C  0.10679948  0.41921095  0.95526435     1.09500
C565        C  0.91785550  0.38254312  0.95480484     1.09400
C566        C  0.11262921  0.57490837  0.95504604     1.09400
C567        C  0.72331251  0.24930091  0.87824055    -0.02600
O568        O  0.46221097  0.12379086  0.97039433    -0.80300
O569        O  0.44197663  0.89277908  0.52550926    -0.80300
O570        O  0.40491451  0.92786842  0.95851652    -0.80300
O571        O  0.46641013  0.06022736  0.56712625    -0.80200
O572        O  0.47534039  0.86014929  0.97106093    -0.80300
O573        O  0.42199327  0.09215996  0.52511676    -0.80300
O574        O  0.47357457  0.94125903  0.56737346    -0.80300
O575        O  0.40080258  0.04822470  0.95847051    -0.80300
C576        C  0.41352432  0.10289157  0.95609524     1.09400
C577        C  0.43758613  0.90284614  0.55421199     1.09300
C578        C  0.42146875  0.87351448  0.95913779     1.09500
C579        C  0.42165570  0.08823037  0.55421832     1.09300
O580        O  0.53642225  0.15149971  0.52405756    -0.80300
O581        O  0.59488948  0.92770729  0.97845801    -0.80300
O582        O  0.52984437  0.05223314  0.93711336    -0.80300
O583        O  0.60035804  0.93864587  0.54158844    -0.80200
O584        O  0.56189323  0.85100382  0.52271936    -0.80300
O585        O  0.58385100  0.07270123  0.98061948    -0.80300
O586        O  0.59118823  0.07230609  0.54087928    -0.80200
O587        O  0.53374795  0.92961052  0.93686456    -0.80300
Co588      Co  0.50472114  0.07920222  0.00502524     1.51500
Co589      Co  0.51882211  0.91475151  0.00406299     1.51700
Co590      Co  0.46824494  0.98991078  0.95102469     1.51600
Co591      Co  0.52844923  0.00204778  0.54761287     1.51500
O592        O  0.48599758  0.99471513  0.99879672    -1.42200
C593        C  0.58273226  0.13020100  0.53974720     1.09400
C594        C  0.58612544  0.91491753  0.94963227     1.09500
C595        C  0.57727002  0.07650345  0.95121222     1.09400
C596        C  0.60149065  0.88008538  0.54035583     1.09400
C597        C  0.24763223  0.74206555  0.87343813    -0.02600
O598        O  0.93018148  0.09823191  0.79584135    -0.80300
O599        O  0.03866459  0.86391542  0.77559369    -0.80300
O600        O  0.86589642  0.95715018  0.76901373    -0.80300
O601        O  0.12947811  0.06068653  0.76684327    -0.80200
O602        O  0.95502704  0.94832958  0.79691893    -0.80300
O603        O  0.05199457  0.08078331  0.79692938    -0.80300
O604        O  0.09042149  0.94701060  0.78749174    -0.80300
O605        O  0.85265079  0.07926059  0.76209056    -0.80300
C606        C  0.87262473  0.10179257  0.78826910     1.09400
C607        C  0.08251665  0.88977525  0.79129008     1.09300
C608        C  0.89586318  0.94132082  0.79384485     1.09500
C609        C  0.10888789  0.08742585  0.79122058     1.09300
O610        O  0.06043995  0.12474108  0.73145154    -0.80300
O611        O  0.93730838  0.88294455  0.73910244    -0.80300
O612        O  0.91046287  0.06716192  0.70138742    -0.80300
O613        O  0.15014185  0.95385972  0.73269445    -0.80200
O614        O  0.05814137  0.91225501  0.71966250    -0.80300
O615        O  0.93268047  0.14467980  0.73282112    -0.80300
O616        O  0.07355268  0.03730532  0.70607883    -0.80200
O617        O  0.91548085  0.94914459  0.70468703    -0.80300
Co618      Co  0.99405944  0.10738652  0.76401790     1.51500
Co619      Co  0.00540109  0.93537352  0.75939400     1.51700
Co620      Co  0.89174536  0.01298944  0.73474930     1.51600
Co621      Co  0.07559392  0.99415035  0.74557825     1.51500
O622        O  0.98348570  0.02070255  0.74987604    -1.42200
C623        C  0.08039276  0.09367023  0.70783601     1.09400
C624        C  0.91063689  0.89642567  0.71352767     1.09500
C625        C  0.90972836  0.12294097  0.70697623     1.09400
C626        C  0.11912309  0.91391835  0.71694056     1.09400
C627        C  0.75822813  0.73931015  0.62773460    -0.02600
C628        C  0.23784614  0.23746054  0.62632497    -0.02600
C629        C  0.75598284  0.27152353  0.62193900    -0.02600
C630        C  0.26728336  0.75993772  0.62989031    -0.02600
C631        C  0.25684772  0.25309268  0.87405097    -0.02600
C632        C  0.76285331  0.76837232  0.87045408    -0.02600
C633        C  0.20798554  0.21639780  0.85247405    -0.00300
C634        C  0.20539043  0.22335051  0.81952807    -0.12100
C635        C  0.17568882  0.18117988  0.79911865     0.02000
C636        C  0.14528681  0.13111799  0.81131768    -0.00400
C637        C  0.13579540  0.13126453  0.84383620    -0.12100
C638        C  0.16325681  0.17536154  0.86413453     0.01900
H639        H  0.22662178  0.26196305  0.80913382     0.14800
H640        H  0.10549668  0.09739573  0.85340439     0.14800
C641        C  0.14588636  0.17510516  0.89666760     0.36500
C642        C  0.17099698  0.19546163  0.76643192     0.36400
N643        N  0.12954671  0.17392527  0.92237220    -0.43900
N644        N  0.16695717  0.21117230  0.74086913    -0.43900
C645        C  0.11964529  0.12254243  0.68435588    -0.00300
C646        C  0.18535462  0.12298778  0.68871862    -0.12100
C647        C  0.22424322  0.15574292  0.66924400     0.02000
C648        C  0.19708049  0.19255299  0.64549868    -0.00400
C649        C  0.13123255  0.18363381  0.63872348    -0.12100
C650        C  0.09343488  0.14833387  0.65757384     0.01900
H651        H  0.20635248  0.09873145  0.70807870     0.14800
H652        H  0.10831993  0.20281236  0.61846447     0.14800
C653        C  0.02978805  0.13310228  0.64749119     0.36500
C654        C  0.29146601  0.15176186  0.67560228     0.36400
N655        N  0.97985801  0.11689936  0.63944187    -0.43900
N656        N  0.34485827  0.14643033  0.68159180    -0.43900
C657        C  0.86504093  0.90264908  0.81620692    -0.00300
C658        C  0.89055777  0.84530060  0.81990508    -0.12100
C659        C  0.85911626  0.80166989  0.83650338     0.02000
C660        C  0.80211349  0.81638933  0.85272339    -0.00400
C661        C  0.78219532  0.87762080  0.85165450    -0.12100
C662        C  0.80981685  0.91860419  0.83186012     0.01900
H663        H  0.93319740  0.83280947  0.80746964     0.14800
H664        H  0.74334891  0.89492817  0.86502792     0.14800
C665        C  0.77881436  0.97560134  0.82714506     0.36500
C666        C  0.88583641  0.74202800  0.83376041     0.36400
N667        N  0.75200550  0.02019309  0.82309923    -0.43900
N668        N  0.91022802  0.69569753  0.83039003    -0.43900
C669        C  0.22664044  0.79507622  0.65490349    -0.00300
C670        C  0.15957172  0.79648980  0.65270136    -0.12100
C671        C  0.12381782  0.83660865  0.67127025     0.02000
C672        C  0.15330221  0.87059932  0.69598893    -0.00400
C673        C  0.21827827  0.86237715  0.70162258    -0.12100
C674        C  0.25497420  0.82619908  0.68160827     0.01900
H675        H  0.13399124  0.76852842  0.63590696     0.14800
H676        H  0.24140217  0.88615591  0.72132770     0.14800
C677        C  0.32197458  0.82551232  0.68902491     0.36500
C678        C  0.05841727  0.84573979  0.66212376     0.36400
N679        N  0.37495852  0.82678539  0.69658129    -0.43900
N680        N  0.00678220  0.85392631  0.65365370    -0.43900
C681        C  0.80050577  0.77844455  0.65140424    -0.00300
C682        C  0.77384101  0.83138649  0.66482815    -0.12100
C683        C  0.80882967  0.87018626  0.68496655     0.02000
C684        C  0.87018902  0.85385945  0.69510031    -0.00400
C685        C  0.89399926  0.79772050  0.68609217    -0.12100
C686        C  0.86094929  0.76020617  0.66433974     0.01900
H687        H  0.72598288  0.84430357  0.65843198     0.14800
H688        H  0.94009322  0.78409101  0.69519136     0.14800
C689        C  0.89113065  0.70306963  0.65741776     0.36500
C690        C  0.78040318  0.92654164  0.69508667     0.36400
N691        N  0.91605994  0.65748886  0.65235635    -0.43900
N692        N  0.75790479  0.97184553  0.70306478    -0.43900
C693        C  0.79732757  0.22787220  0.64200205    -0.00300
C694        C  0.84529291  0.25536407  0.66164903    -0.12100
C695        C  0.88380542  0.22270008  0.68215694     0.02000
C696        C  0.87454160  0.16059314  0.68438729    -0.00400
C697        C  0.82760426  0.13245838  0.66529506    -0.12100
C698        C  0.78892820  0.16437372  0.64464820     0.01900
H699        H  0.85359375  0.30327735  0.66052883     0.14800
H700        H  0.81921254  0.08459501  0.66731117     0.14800
C701        C  0.73950894  0.12870884  0.62930358     0.36500
C702        C  0.93374800  0.25377453  0.69977073     0.36400
N703        N  0.70050548  0.09781086  0.61806619    -0.43900
N704        N  0.97412190  0.27845284  0.71376252    -0.43900
C705        C  0.20557771  0.78618810  0.85367065    -0.00300
C706        C  0.16468437  0.75816431  0.83080925    -0.12100
C707        C  0.12343901  0.79030129  0.81152389     0.02000
C708        C  0.12322335  0.85400747  0.81307233    -0.00400
C709        C  0.16578307  0.88311249  0.83424185    -0.12100
C710        C  0.20714038  0.85065055  0.85398196     0.01900
H711        H  0.16275471  0.70943522  0.82892099     0.14800
H712        H  0.16795985  0.93183534  0.83485570     0.14800
C713        C  0.25343520  0.88650797  0.87126974     0.36500
C714        C  0.08212666  0.75537060  0.79041552     0.36400
N715        N  0.29090584  0.91686212  0.88410016    -0.43900
N716        N  0.04895621  0.72712924  0.77370702    -0.43900
C717        C  0.62754978  0.17178219  0.55623751    -0.00300
C718        C  0.60299038  0.21896902  0.57468018    -0.12100
C719        C  0.64230294  0.25492250  0.59439209     0.02000
C720        C  0.70819760  0.24064191  0.59790022    -0.00400
C721        C  0.73301494  0.19983945  0.57502801    -0.12100
C722        C  0.69349370  0.16463911  0.55496018     0.01900
H723        H  0.55235393  0.22761279  0.57383837     0.14800
H724        H  0.78357008  0.19194147  0.57442691     0.14800
C725        C  0.72157994  0.12139347  0.53343197     0.36500
C726        C  0.61309884  0.30845785  0.60764037     0.36400
N727        N  0.74396591  0.08691025  0.51602948    -0.43900
N728        N  0.58858694  0.35130466  0.61767311    -0.43900
C729        C  0.37494661  0.12216200  0.57341447    -0.00300
C730        C  0.39796080  0.16633831  0.59462284    -0.12100
C731        C  0.35750730  0.20254086  0.61283799     0.02000
C732        C  0.28965087  0.19711524  0.60915457    -0.00400
C733        C  0.26822040  0.14723762  0.58998791    -0.12100
C734        C  0.30937489  0.11175166  0.57154325     0.01900
H735        H  0.44891215  0.17227763  0.59720085     0.14800
H736        H  0.21792301  0.13737283  0.58833903     0.14800
C737        C  0.28333205  0.06414271  0.55135876     0.36500
C738        C  0.39050827  0.23854858  0.63680475     0.36400
N739        N  0.26238233  0.02591441  0.53521806    -0.43900
N740        N  0.41974529  0.26537812  0.65585161    -0.43900
C741        C  0.30918384  0.80216945  0.61019198    -0.00300
C742        C  0.34571218  0.77357722  0.58645249    -0.12100
C743        C  0.38713961  0.80533153  0.56805913     0.02000
C744        C  0.39273419  0.86804905  0.57236414    -0.00400
C745        C  0.35440972  0.89803529  0.59399952    -0.12100
C746        C  0.31108230  0.86682727  0.61185313     0.01900
H747        H  0.34468695  0.72507814  0.58341501     0.14800
H748        H  0.35656192  0.94681306  0.59597697     0.14800
C749        C  0.26657146  0.90493850  0.62825954     0.36500
C750        C  0.42689098  0.77161356  0.54663771     0.36400
N751        N  0.23128382  0.93770454  0.64028502    -0.43900
N752        N  0.45895663  0.74444656  0.52966994    -0.43900
C753        C  0.71274951  0.80177104  0.89236116    -0.00300
C754        C  0.72202419  0.80845841  0.92541550    -0.12100
C755        C  0.68538371  0.84801675  0.94403134     0.02000
C756        C  0.63151412  0.87655838  0.93106997    -0.00400
C757        C  0.61672194  0.86400245  0.89926713    -0.12100
C758        C  0.65646672  0.82949113  0.87990684     0.01900
H759        H  0.75845509  0.78448558  0.93764220     0.14800
H760        H  0.57459997  0.88365606  0.88876453     0.14800
C761        C  0.63936601  0.82884823  0.84684235     0.36500
C762        C  0.70700977  0.85969888  0.97598019     0.36400
N763        N  0.62399532  0.83046124  0.82062145    -0.43900
N764        N  0.72741395  0.86908378  0.50108432    -0.43900
C765        C  0.37528105  0.13967524  0.93460198    -0.00300
C766        C  0.39257477  0.19937874  0.93041029    -0.12100
C767        C  0.35633889  0.23639626  0.91112112     0.02000
C768        C  0.30311704  0.21238797  0.89317028    -0.00400
C769        C  0.29337597  0.14969074  0.89431154    -0.12100
C770        C  0.32393897  0.11527316  0.91669317     0.01900
H771        H  0.43275922  0.21840930  0.94363784     0.14800
H772        H  0.26024594  0.12614368  0.87894907     0.14800
C773        C  0.29687706  0.05725481  0.92271268     0.36500
C774        C  0.37364355  0.29921637  0.91277093     0.36400
N775        N  0.27413697  0.01194556  0.92881161    -0.43900
N776        N  0.38980428  0.34891669  0.91511217    -0.43900
C777        C  0.72234857  0.77628581  0.60195977    -0.00300
C778        C  0.73785962  0.83701696  0.59622986    -0.12100
C779        C  0.70065929  0.87213997  0.57600391     0.02000
C780        C  0.64930860  0.84573749  0.55879130    -0.00400
C781        C  0.64007802  0.78378105  0.56059587    -0.12100
C782        C  0.67492476  0.74925585  0.58155710     0.01900
H783        H  0.77864645  0.85811009  0.60766443     0.14800
H784        H  0.60216687  0.76210702  0.54681329     0.14800
C785        C  0.65363203  0.68795622  0.58322888     0.36500
C786        C  0.71686305  0.93479400  0.57330362     0.36400
N787        N  0.63137516  0.64044515  0.58313593    -0.43900
N788        N  0.72986634  0.98499044  0.57108855    -0.43900
C789        C  0.37837283  0.82851377  0.94379186    -0.00300
C790        C  0.31293176  0.83800399  0.94576896    -0.12100
C791        C  0.26980003  0.80829711  0.92508090     0.02000
C792        C  0.29222906  0.77080419  0.89992656    -0.00400
C793        C  0.35712768  0.75351851  0.90242650    -0.12100
C794        C  0.40007058  0.78291012  0.92322513     0.01900
H795        H  0.29549695  0.87110181  0.96275662     0.14800
H796        H  0.37591007  0.71758113  0.88768626     0.14800
C797        C  0.46645268  0.76776036  0.92150008     0.36500
C798        C  0.20373106  0.82137743  0.92968233     0.36400
N799        N  0.51954072  0.75528108  0.92004413    -0.43900
N800        N  0.15184141  0.83424125  0.93489082    -0.43900
C801        C  0.76338007  0.21129593  0.85371022    -0.00300
C802        C  0.75675177  0.21809647  0.82072155    -0.12100
C803        C  0.78791766  0.18023417  0.79901473     0.02000
C804        C  0.83104461  0.13672397  0.80967255    -0.00400
C805        C  0.84132412  0.13165836  0.84200126    -0.12100
C806        C  0.80824241  0.16707646  0.86382186     0.01900
H807        H  0.72852097  0.25379172  0.81110949     0.14800
H808        H  0.87515761  0.09862878  0.85037613     0.14800
C809        C  0.81975886  0.15353746  0.89641224     0.36500
C810        C  0.77665163  0.18889619  0.76587769     0.36400
N811        N  0.82948365  0.14061694  0.92218830    -0.43900
N812        N  0.76701482  0.19571642  0.73937080    -0.43900
C813        C  0.61729127  0.11810517  0.93374521    -0.00300
C814        C  0.61831632  0.17920557  0.94302108    -0.12100
C815        C  0.64745818  0.22255067  0.92477384     0.02000
C816        C  0.68204589  0.20474451  0.89758750    -0.00400
C817        C  0.67450006  0.14365125  0.88722086    -0.12100
C818        C  0.64413040  0.10102734  0.90501211     0.01900
H819        H  0.59361643  0.19360614  0.96396979     0.14800
H820        H  0.69167641  0.12785658  0.86475050     0.14800
C821        C  0.64190136  0.03976406  0.89296729     0.36500
C822        C  0.64052702  0.28446407  0.93525587     0.36400
N823        N  0.64129299  0.99118941  0.88246525    -0.43900
N824        N  0.63309869  0.33307015  0.94501086    -0.43900
C825        C  0.19269820  0.27175682  0.60272547    -0.00300
C826        C  0.19074522  0.25853212  0.56984458    -0.12100
C827        C  0.15003605  0.28908352  0.54930148     0.02000
C828        C  0.11836793  0.34112417  0.55991250    -0.00400
C829        C  0.11776450  0.35415336  0.59220663    -0.12100
C830        C  0.15026869  0.31804960  0.61357298     0.01900
H831        H  0.21960983  0.22446562  0.55917217     0.14800
H832        H  0.09043108  0.39230386  0.60089939     0.14800
C833        C  0.13800130  0.33055637  0.64637370     0.36500
C834        C  0.13871845  0.26380745  0.51807346     0.36400
N835        N  0.12661481  0.34152618  0.67238858    -0.43900
N836        N  0.12692835  0.24181546  0.99364778    -0.43900
C837        C  0.22600775  0.72418740  0.60397101    -0.00300
C838        C  0.23863632  0.66241306  0.59746326    -0.12100
C839        C  0.20369288  0.62811729  0.57541762     0.02000
C840        C  0.15400622  0.65458931  0.55798626    -0.00400
C841        C  0.14567551  0.71692879  0.56084071    -0.12100
C842        C  0.18198322  0.75199687  0.58274823     0.01900
H843        H  0.27800523  0.63965959  0.60854088     0.14800
H844        H  0.11016892  0.73830303  0.54619637     0.14800
C845        C  0.17137112  0.81612479  0.58269285     0.36500
C846        C  0.22244244  0.56589102  0.57046071     0.36400
N847        N  0.16059672  0.86710041  0.58190554    -0.43900
N848        N  0.23789507  0.51625989  0.56667589    -0.43900
C849        C  0.80100332  0.69773293  0.60685145    -0.00300
C850        C  0.84988314  0.72748854  0.59105753    -0.12100
C851        C  0.89028048  0.69728485  0.57038813     0.02000
C852        C  0.87990806  0.63619005  0.56264018    -0.00400
C853        C  0.83237555  0.60557586  0.57792933    -0.12100
C854        C  0.79390464  0.63462291  0.60019333     0.01900
H855        H  0.85733551  0.77524340  0.59537737     0.14800
H856        H  0.82517123  0.55811379  0.57227753     0.14800
C857        C  0.74692446  0.59715587  0.61372684     0.36500
C858        C  0.94077639  0.73084442  0.55686641     0.36400
N859        N  0.70943486  0.56532962  0.62355187    -0.43900
N860        N  0.98154448  0.75790772  0.54642821    -0.43900
C861        C  0.14556160  0.61041221  0.93101941    -0.00300
C862        C  0.11110797  0.65547632  0.91599179    -0.12100
C863        C  0.14006872  0.69823985  0.89750507     0.02000
C864        C  0.20691609  0.69531838  0.89182982    -0.00400
C865        C  0.24039973  0.64779903  0.90643971    -0.12100
C866        C  0.21093647  0.60614114  0.92553199     0.01900
H867        H  0.06082929  0.66001929  0.92045317     0.14800
H868        H  0.29093723  0.64337485  0.90310346     0.14800
C869        C  0.24901570  0.55896746  0.93886249     0.36500
C870        C  0.09828908  0.74616905  0.88802911     0.36400
N871        N  0.27961123  0.52101056  0.44937377    -0.43900
N872        N  0.06293253  0.78372195  0.88126934    -0.43900
C873        C  0.81285006  0.73046206  0.89011350    -0.00300
C874        C  0.85545609  0.76202510  0.91101165    -0.12100
C875        C  0.89727706  0.73241519  0.93161249     0.02000
C876        C  0.89969942  0.66886013  0.93119296    -0.00400
C877        C  0.86427283  0.63747861  0.90789637    -0.12100
C878        C  0.82402799  0.66664335  0.88675245     0.01900
H879        H  0.85393463  0.81083403  0.91224461     0.14800
H880        H  0.86934423  0.58895326  0.90542602     0.14800
C881        C  0.80494923  0.62895124  0.85987836     0.36500
C882        C  0.93603421  0.76883239  0.95312081     0.36400
N883        N  0.79249578  0.59724242  0.83852293    -0.43900
N884        N  0.96718499  0.79822976  0.97024672    -0.43900
C885        C  0.21610900  0.29514522  0.89635827    -0.00300
C886        C  0.17257360  0.33595819  0.88237805    -0.12100
C887        C  0.13550504  0.37654190  0.90044949     0.02000
C888        C  0.14237976  0.37864996  0.93338551    -0.00400
C889        C  0.18420649  0.33830262  0.94736164    -0.12100
C890        C  0.21707477  0.29470851  0.93003328     0.01900
H891        H  0.16816698  0.33663815  0.85696309     0.14800
H892        H  0.18859100  0.33849537  0.97281076     0.14800
C893        C  0.24327561  0.24758990  0.94894853     0.36500
C894        C  0.09292097  0.41710141  0.88474185     0.36400
N895        N  0.26161652  0.21066414  0.96542329    -0.43900
N896        N  0.05867943  0.44979996  0.87227238    -0.43900
C897        C  0.79747617  0.31092270  0.60016792    -0.00300
C898        C  0.76778210  0.36001464  0.58527819    -0.12100
C899        C  0.79997127  0.39720084  0.56493494     0.02000
C900        C  0.86443723  0.38633629  0.55859494    -0.00400
C901        C  0.89409839  0.33739491  0.57270748    -0.12100
C902        C  0.86122534  0.29830711  0.59154242     0.01900
H903        H  0.71848864  0.36964674  0.58970013     0.14800
H904        H  0.94264658  0.32632201  0.56688511     0.14800
C905        C  0.89284657  0.24209824  0.59687030     0.36500
C906        C  0.76478616  0.44536999  0.55073265     0.36400
N907        N  0.91918503  0.19701156  0.59984978    -0.43900
N908        N  0.73594223  0.48365446  0.53940994    -0.43900
C909        C  0.77541428  0.28442249  0.89841750    -0.00300
C910        C  0.78626983  0.27299821  0.93058800    -0.12100
C911        C  0.83288226  0.30324877  0.94882394     0.02000
C912        C  0.87117612  0.34698047  0.93542092    -0.00400
C913        C  0.86336917  0.35749679  0.90340042    -0.12100
C914        C  0.81806481  0.32569374  0.88472050     0.01900
H915        H  0.76038149  0.23856380  0.94197945     0.14800
H916        H  0.89334138  0.39044223  0.89280341     0.14800
C917        C  0.81504990  0.33922569  0.85178486     0.36500
C918        C  0.83913901  0.28868184  0.98156560     0.36400
N919        N  0.81323017  0.35126036  0.82554973    -0.43900
N920        N  0.84324600  0.27571810  0.50761762    -0.43900
C921        C  0.65268499  0.63677406  0.81176260    -0.00300
C922        C  0.68714211  0.68061589  0.79697388    -0.12100
C923        C  0.72117015  0.72514382  0.81407504     0.05200
C924        C  0.72258685  0.72566697  0.84780341    -0.00400
C925        C  0.68202432  0.68403672  0.86213958    -0.12100
C926        C  0.64843032  0.63951430  0.84456152     0.01900
H927        H  0.68640254  0.68071178  0.77155265     0.14800
H928        H  0.67976154  0.68402980  0.88753740     0.14800
C929        C  0.61277596  0.59526793  0.86073430     0.36500
C930        C  0.74803722  0.77073032  0.79506593     0.36400
N931        N  0.58452550  0.55956292  0.87373245    -0.43900
N932        N  0.76732962  0.80635770  0.77853572    -0.43900
C933        C  0.38390597  0.35437372  0.81412217    -0.00300
C934        C  0.38008923  0.29181963  0.81077339    -0.12100
C935        C  0.34255363  0.25867273  0.83062278     0.02000
C936        C  0.30223611  0.28863157  0.85285330    -0.00400
C937        C  0.30854164  0.35144751  0.85653247    -0.12100
C938        C  0.35101909  0.38349454  0.83906222     0.01900
H939        H  0.40619281  0.26860368  0.79244912     0.14800
H940        H  0.28429345  0.37613024  0.87491154     0.14800
C941        C  0.36125638  0.44571697  0.84887998     0.36500
C942        C  0.34465313  0.19392276  0.82634433     0.36400
N943        N  0.36990589  0.49498366  0.85752485    -0.43900
N944        N  0.34652114  0.14219218  0.82246134    -0.43900
C945        C  0.72289184  0.31024673  0.64825437    -0.00300
C946        C  0.74304217  0.36979832  0.65529251    -0.12100
C947        C  0.71271732  0.40708492  0.67726274     0.02000
C948        C  0.66128867  0.38553509  0.69382212    -0.00400
C949        C  0.64567314  0.32457106  0.69013560    -0.12100
C950        C  0.67686300  0.28646208  0.66864819     0.01900
H951        H  0.78358832  0.38825514  0.64391478     0.14800
H952        H  0.60741028  0.30684499  0.70368654     0.14800
C953        C  0.65642970  0.22457307  0.66747644     0.36500
C954        C  0.73627541  0.46716180  0.68119179     0.36400
N955        N  0.63699309  0.17601703  0.66816565    -0.43900
N956        N  0.76044301  0.51365204  0.68226285    -0.43900
C957        C  0.36533914  0.61860815  0.68467106    -0.00300
C958        C  0.40159811  0.66037528  0.66892730    -0.12100
C959        C  0.37408339  0.70780297  0.65251554     0.02000
C960        C  0.30654226  0.71338959  0.64990081    -0.00400
C961        C  0.27074302  0.67141820  0.66664307    -0.12100
C962        C  0.29890639  0.62436306  0.68317506     0.01900
H963        H  0.45289681  0.65810775  0.67089725     0.14800
H964        H  0.21945262  0.67412648  0.66567045     0.14800
C965        C  0.25812607  0.58164215  0.69755833     0.36500
C966        C  0.41866165  0.75156857  0.64210802     0.36400
N967        N  0.22549510  0.54714132  0.70891676    -0.43900
N968        N  0.45604385  0.78591505  0.63457687    -0.43900
C969        C  0.63408578  0.65161701  0.69475722    -0.00300
C970        C  0.60851038  0.69499454  0.67509455    -0.12100
C971        C  0.64675048  0.72660317  0.65487627     0.02000
C972        C  0.71127972  0.70854204  0.65021385    -0.00400
C973        C  0.73674350  0.66835560  0.67231060    -0.12100
C974        C  0.69984455  0.64271501  0.69518748     0.01900
H975        H  0.55882534  0.70692783  0.67689206     0.14800
H976        H  0.78642977  0.65733751  0.67225307     0.14800
C977        C  0.73164320  0.61333767  0.72085561     0.36500
C978        C  0.61929209  0.78146514  0.64336424     0.36400
N979        N  0.75820142  0.59027479  0.74128106    -0.43900
N980        N  0.59693320  0.82585139  0.63490429    -0.43900
C981        C  0.60108154  0.36335386  0.81901858    -0.00300
C982        C  0.63542837  0.39071361  0.84414567    -0.12100
C983        C  0.67028657  0.35673390  0.86583171     0.02000
C984        C  0.67420964  0.29251061  0.86179278    -0.00400
C985        C  0.62962222  0.26587778  0.84026899    -0.12100
C986        C  0.59547690  0.29987778  0.81838916     0.01900
H987        H  0.63673158  0.43945493  0.84644416     0.14800
H988        H  0.62646451  0.21718554  0.83819403     0.14800
C989        C  0.55741844  0.26754211  0.79484532     0.36500
C990        C  0.69833237  0.39087635  0.89199234     0.36400
N991        N  0.52765729  0.24098705  0.77592008    -0.43900
N992        N  0.71988473  0.41981751  0.91265912    -0.43900
C993        C  0.36802624  0.64794242  0.80367129    -0.00300
C994        C  0.37734721  0.70889397  0.81042069    -0.12100
C995        C  0.33771847  0.74062656  0.83111069     0.02000
C996        C  0.28856528  0.71021666  0.84717765    -0.00400
C997        C  0.27520088  0.65051030  0.83660803    -0.12100
C998        C  0.31355493  0.61994980  0.81499365     0.01900
H999        H  0.41752864  0.73125643  0.80055652     0.14800
H1000       H  0.23409875  0.62720928  0.84467812     0.14800
C1001       C  0.29412602  0.56068603  0.80359449     0.36500
C1002       C  0.35434346  0.80288994  0.83688481     0.36400
N1003       N  0.27807311  0.51355641  0.79421513    -0.43900
N1004       N  0.37238939  0.85178223  0.84048194    -0.43900
C1005       C  0.26894492  0.28892453  0.64788806    -0.00300
C1006       C  0.26106227  0.29142603  0.68086620    -0.12100
C1007       C  0.29112689  0.33469334  0.70058446     0.02000
C1008       C  0.33082602  0.37804308  0.68794783    -0.00400
C1009       C  0.33419743  0.38055300  0.65518090    -0.12100
C1010       C  0.30255882  0.33815184  0.63518578     0.01900
H1011       H  0.23017602  0.26058190  0.69198989     0.14800
H1012       H  0.36339856  0.41472456  0.64513829     0.14800
C1013       C  0.30924509  0.34453895  0.60177470     0.36500
C1014       C  0.28177029  0.33183576  0.73396322     0.36400
N1015       N  0.31450042  0.35043102  0.57506708    -0.43900
N1016       N  0.27342221  0.32963459  0.76063479    -0.43900
loop_ 
_geom_bond_atom_site_label_1 
_geom_bond_atom_site_label_2 
_geom_bond_distance 
_geom_bond_site_symmetry_2 
_ccdc_geom_bond_type 
O1            C9   1.259       .  A
O1          Co21   1.969       .  S
O2           C10   1.264       .  A
O2          Co22   1.884       .  S
O3           C11   1.281       .  A
O3          Co23   2.038       .  S
O4           C12   1.270       .  A
O4          Co24   2.030       .  S
O5           C11   1.269       .  A
O5          Co22   1.964       .  S
O6           C12   1.258       .  A
O6          Co21   1.967       .  S
O7           C10   1.300       .  A
O7          Co24   2.115       .  S
O8            C9   1.272       .  A
O8          Co23   2.028       .  S
C9          C500   1.487       .  S
C10         C461   1.479       .  S
C11         C449   1.494       .  S
C12         C440   1.480       .  S
O13          C26   1.274       .  A
O13         Co21   2.019       .  S
O14          C27   1.260       .  A
O14         Co22   2.032       .  S
O15          C28   1.245       .  A
O15         Co23   1.926       .  S
O16          C29   1.268       .  A
O16         Co24   1.892       .  S
O17          C29   1.295       .  A
O17         Co22   2.102       .  S
O18          C28   1.278       .  A
O18         Co21   2.051       .  S
O19          C26   1.272       .  A
O19         Co24   1.988       .  S
O20          C27   1.244       .  A
O20         Co23   1.945       .  S
Co21         O25   2.040       .  S
Co22         O25   2.016       .  S
Co23         O25   2.010       .  S
Co24         O25   2.009       .  S
C26         C473   1.500       .  S
C27         C485   1.479       .  S
C28         C425   1.485       .  S
C29         C413   1.472       .  S
O30          C38   1.252       .  A
O30         Co50   2.003   1_554  S
O31          C39   1.255       .  A
O31         Co51   1.952       .  S
O32          C40   1.271       .  A
O32         Co52   2.017   1_454  S
O33          C41   1.246       .  A
O33         Co53   1.965   1_654  S
O34          C40   1.264       .  A
O34         Co51   1.978       .  S
O35          C41   1.255       .  A
O35         Co50   1.994   1_554  S
O36          C39   1.272       .  A
O36         Co53   2.036   1_554  S
O37          C38   1.247       .  A
O37         Co52   1.969   1_554  S
C38         C392   1.495       .  S
C39         C332   1.484       .  S
C40         C320   1.484       .  S
C41         C344   1.479       .  S
O42          C55   1.303       .  A
O42        Co558   2.079       .  S
O43          C56   1.266       .  A
O43        Co559   1.993       .  S
O44          C57   1.271       .  A
O44        Co560   1.892       .  S
O45          C58   1.259       .  A
O45        Co561   1.981       .  S
O46          C58   1.271       .  A
O46        Co559   2.037       .  S
O47          C57   1.302       .  A
O47        Co558   2.085       .  S
O48          C55   1.273       .  A
O48        Co561   1.902   1_655  S
O49          C56   1.265       .  A
O49        Co560   2.007   1_455  S
Co50        O550   2.079       .  S
Co50        O555   2.085       .  S
Co50         O54   2.244   1_656  S
Co51        O551   1.993   1_554  S
Co51        O554   2.037   1_554  S
Co51         O54   2.064       .  S
Co52        O552   1.892       .  S
Co52        O557   2.007   1_655  S
Co52         O54   1.932   1_656  S
Co53        O553   1.981       .  S
Co53        O556   1.902   1_455  S
Co53         O54   1.942   1_556  S
C55         C368   1.497       .  S
C56         C380   1.491       .  S
C57         C404   1.483       .  S
C58         C353   1.498       .  S
C59         C293   1.582       .  S
C59         C308   1.585       .  S
C59         C401   1.573       .  S
C59         C476   1.580       .  S
O60          C68   1.264       .  A
O60         Co80   1.999       .  S
O61          C69   1.241       .  A
O61        Co589   1.952       .  S
O62          C70   1.259       .  A
O62         Co82   1.962       .  S
O63          C71   1.257       .  A
O63         Co83   2.014       .  S
O64          C70   1.274       .  A
O64         Co81   2.031       .  S
O65          C71   1.246       .  A
O65        Co588   1.980       .  S
O66          C69   1.254       .  A
O66         Co83   2.001   1_565  S
O67          C68   1.253       .  A
O67         Co82   1.949   1_545  S
C68         C257   1.474       .  S
C69         C236   1.473       .  S
C70         C281   1.479       .  S
C71         C221   1.486       .  S
O72          C85   1.271       .  A
O72        Co588   1.893       .  S
O73          C86   1.261       .  A
O73         Co81   1.990       .  S
O74          C87   1.268       .  A
O74         Co82   2.015   1_545  S
O75          C88   1.302       .  A
O75         Co83   2.085   1_565  S
O76          C88   1.273       .  A
O76        Co589   1.872       .  S
O77          C87   1.263       .  A
O77         Co80   1.992       .  S
O78          C85   1.302       .  A
O78         Co83   2.082       .  S
O79          C86   1.268       .  A
O79         Co82   2.014       .  S
Co80        O573   1.980       .  S
Co80        O580   1.893       .  S
Co80         O84   1.929   1_545  S
Co81        O569   1.952       .  S
Co81        O584   1.872       .  S
Co81         O84   1.925       .  S
Co82         O84   2.060       .  S
Co83        O592   2.246   1_544  S
O84        Co591   2.246   1_565  S
C85         C209   1.474       .  S
C86         C248   1.504       .  S
C87         C305   1.484       .  S
C88         C272   1.490       .  S
C89         C197   1.574       .  S
C89         C284   1.572       .  S
C89         C356   1.588       .  S
C89         C488   1.579       .  S
O90          C98   1.253       .  A
O90        Co110   1.951       .  S
O91          C99   1.258       .  A
O91        Co111   1.881       .  S
O92         C100   1.279       .  A
O92        Co112   2.032   1_565  S
O93         C101   1.265       .  A
O93        Co113   2.043   1_545  S
O94         C100   1.263       .  A
O94        Co111   1.954   1_655  S
O95         C101   1.242       .  A
O95        Co110   1.945   1_455  S
O96          C99   1.300       .  A
O96        Co113   2.116       .  S
O97          C98   1.270       .  A
O97        Co112   2.034       .  S
C98         C296   1.482       .  S
C99         C200   1.497       .  S
C100        C149   1.468       .  S
C101        C128   1.478       .  S
O102        C115   1.281       .  A
O102       Co110   2.042   1_455  S
O103        C116   1.259       .  A
O103       Co111   2.014   1_655  S
O104        C117   1.255       .  A
O104       Co112   1.941       .  S
O105        C118   1.269       .  A
O105       Co113   1.894       .  S
O106        C118   1.297       .  A
O106       Co111   2.098       .  S
O107        C117   1.273       .  A
O107       Co110   2.030       .  S
O108        C115   1.261       .  A
O108       Co113   1.964   1_545  S
O109        C116   1.248       .  A
O109       Co112   1.953   1_565  S
Co110       O114   2.012       .  S
Co111       O114   2.004   1_465  S
Co112       O114   2.033       .  S
Co113       O114   2.043   1_465  S
C115        C137   1.478       .  S
C116        C176   1.471       .  S
C117        C188   1.482       .  S
C118        C164   1.489       .  S
C119        C173   1.573       .  S
C119        C269   1.573       .  S
C119        C341   1.563       .  S
C119        C464   1.568       .  S
C120        C140   1.580       .  S
C120        C224   1.590       .  S
C120        C317   1.582       .  S
C120        C497   1.578       .  S
C121        C185   1.566       .  S
C121        C212   1.564       .  S
C121        C389   1.578       .  S
C121        C437   1.568       .  S
C122        C161   1.571       .  S
C122        C233   1.568       .  S
C122        C329   1.584       .  S
C122        C452   1.583       .  S
C123        C125   1.576       .  S
C123        C260   1.564       .  S
C123        C377   1.580       .  S
C123        C428   1.565       .  S
C124        C152   1.576       .  S
C124        C245   1.594       .  S
C124        C365   1.590       .  S
C124        C416   1.568       .  S
C125        C126   1.417       .  A
C125        C130   1.424       .  A
C126        C127   1.397       .  A
C126        H131   1.082       .  S
C127        C128   1.406       .  A
C127        C134   1.439       .  S
C128        C129   1.404       .  A
C129        C130   1.403       .  A
C129        H132   1.085       .  S
C130        C133   1.442       .  S
C133        N135   1.157       .  T
C134        N136   1.156       .  T
C137        C138   1.396       .  A
C137        C142   1.396       .  A
C138        C139   1.403       .  A
C138        H143   1.086       .  S
C139        C140   1.431       .  A
C139        C146   1.442       .  S
C140        C141   1.426       .  A
C141        C142   1.404       .  A
C141        H144   1.079       .  S
C142        C145   1.439       .  S
C145        N147   1.156   1_455  T
C146        N148   1.157       .  T
C149        C150   1.396       .  A
C149        C154   1.397       .  A
C150        C151   1.397       .  A
C150        H155   1.087       .  S
C151        C152   1.434       .  A
C151        C158   1.443       .  S
C152        C153   1.426       .  A
C153        C154   1.399       .  A
C153        H156   1.074       .  S
C154        C157   1.443       .  S
C157        N159   1.157   1_565  T
C158        N160   1.157       .  T
C161        C162   1.418       .  A
C161        C166   1.431       .  A
C162        C163   1.404       .  A
C162        H167   1.069       .  S
C163        C164   1.409       .  A
C163        C170   1.442       .  S
C164        C165   1.400       .  A
C165        C166   1.400       .  A
C165        H168   1.084       .  S
C166        C169   1.443       .  S
C169        N171   1.157       .  T
C170        N172   1.157       .  T
C173        C174   1.414       .  A
C173        C178   1.441       .  A
C174        C175   1.396       .  A
C174        H179   1.081       .  S
C175        C176   1.407       .  A
C175        C182   1.446       .  S
C176        C177   1.391       .  A
C177        C178   1.401       .  A
C177        H180   1.086       .  S
C178        C181   1.445       .  S
C181        N183   1.158       .  T
C182        N184   1.157       .  T
C185        C186   1.424       .  A
C185        C190   1.432       .  A
C186        C187   1.399       .  A
C186        H191   1.083       .  S
C187        C188   1.402       .  A
C187        C194   1.443       .  S
C188        C189   1.402       .  A
C189        C190   1.396       .  A
C189        H192   1.086       .  S
C190        C193   1.443       .  S
C193        N195   1.158       .  T
C194        N196   1.157       .  T
C197        C198   1.416       .  A
C197        C202   1.433       .  A
C198        C199   1.395       .  A
C198        H203   1.085       .  S
C199        C200   1.416       .  A
C199        C206   1.446       .  S
C200        C201   1.402       .  A
C201        C202   1.412       .  A
C201        H204   1.084       .  S
C202        C205   1.437       .  S
C205        N207   1.156       .  T
C206        N208   1.158       .  T
C209        C210   1.397       .  A
C209        C214   1.404       .  A
C210        C211   1.399       .  A
C210        H215   1.086       .  S
C211        C212   1.432       .  A
C211        C218   1.444       .  S
C212        C213   1.418       .  A
C213        C214   1.401       .  A
C213        H216   1.083       .  S
C214        C217   1.443       .  S
C217        N219   1.157       .  T
C218        N220   1.158       .  T
C221        C222   1.393       .  A
C221        C226   1.404       .  A
C222        C223   1.403       .  A
C222        H227   1.087       .  S
C223        C224   1.443       .  A
C223        C230   1.443       .  S
C224        C225   1.423       .  A
C225        C226   1.409       .  A
C225        H228   1.085       .  S
C226        C229   1.443       .  S
C229        N231   1.157       .  T
C230        N232   1.158       .  T
C233        C234   1.420       .  A
C233        C238   1.438       .  A
C234        C235   1.396       .  A
C234        H239   1.082       .  S
C235        C236   1.405       .  A
C235        C242   1.445       .  S
C236        C237   1.394       .  A
C237        C238   1.403       .  A
C237        H240   1.086       .  S
C238        C241   1.442       .  S
C241        N243   1.158       .  T
C242        N244   1.157       .  T
C245        C246   1.420       .  A
C245        C250   1.436       .  A
C246        C247   1.408       .  A
C246        H251   1.070       .  S
C247        C248   1.412       .  A
C247        C254   1.441       .  S
C248        C249   1.402       .  A
C249        C250   1.401       .  A
C249        H252   1.084       .  S
C250        C253   1.445       .  S
C253        N255   1.157       .  T
C254        N764   1.156       .  T
N256        C762   1.156   1_554  T
C257        C258   1.396       .  A
C257        C262   1.410       .  A
C258        C259   1.397       .  A
C258        H263   1.086       .  S
C259        C260   1.438       .  A
C259        C266   1.443       .  S
C260        C261   1.412       .  A
C261        C262   1.389       .  A
C261        H264   1.072       .  S
C262        C265   1.445       .  S
C265        N267   1.157       .  T
C266        N268   1.158       .  T
C269        C270   1.420       .  A
C269        C274   1.430       .  A
C270        C271   1.407       .  A
C270        H275   1.080       .  S
C271        C272   1.412       .  A
C271        C278   1.444       .  S
C272        C273   1.396       .  A
C273        C274   1.393       .  A
C273        H276   1.085       .  S
C274        C277   1.440       .  S
C277        N279   1.157       .  T
C278        N280   1.157       .  T
C281        C282   1.402       .  A
C281        C286   1.402       .  A
C282        C283   1.403       .  A
C282        H287   1.085       .  S
C283        C284   1.425       .  A
C283        C290   1.442       .  S
C284        C285   1.425       .  A
C285        C286   1.400       .  A
C285        H288   1.081       .  S
C286        C289   1.444       .  S
C289        N291   1.157       .  T
C290        N292   1.157       .  T
C293        C294   1.422       .  A
C293        C298   1.434       .  A
C294        C295   1.405       .  A
C294        H299   1.078       .  S
C295        C296   1.406       .  A
C295        C302   1.445       .  S
C296        C297   1.397       .  A
C297        C298   1.398       .  A
C297        H300   1.087       .  S
C298        C301   1.445       .  S
C301        N303   1.158       .  T
C302        N304   1.157       .  T
C305        C306   1.402       .  A
C305        C310   1.402       .  A
C306        C307   1.409       .  A
C306        H311   1.083       .  S
C307        C308   1.429       .  A
C307        C314   1.442       .  S
C308        C309   1.423       .  A
C309        C310   1.399       .  A
C309        H312   1.079       .  S
C310        C313   1.440       .  S
C313        N315   1.155   1_545  T
C314        N316   1.157       .  T
C317        C318   1.421       .  A
C317        C322   1.436       .  A
C318        C319   1.403       .  A
C318        H323   1.068       .  S
C319        C320   1.403       .  A
C319        C326   1.442       .  S
C320        C321   1.397       .  A
C321        C322   1.400       .  A
C321        H324   1.085       .  S
C322        C325   1.445       .  S
C325        N327   1.158       .  T
C326        N836   1.157   1_554  T
N328        C834   1.157       .  T
C329        C330   1.418       .  A
C329        C334   1.435       .  A
C330        C331   1.389       .  A
C330        H335   1.080       .  S
C331        C332   1.410       .  A
C331        C338   1.449       .  S
C332        C333   1.399       .  A
C333        C334   1.410       .  A
C333        H336   1.083       .  S
C334        C337   1.443       .  S
C337        N339   1.157       .  T
C338        N340   1.158       .  T
C341        C342   1.422       .  A
C341        C346   1.430       .  A
C342        C343   1.396       .  A
C342        H347   1.083       .  S
C343        C344   1.404       .  A
C343        C350   1.444       .  S
C344        C345   1.399       .  A
C345        C346   1.404       .  A
C345        H348   1.085       .  S
C346        C349   1.440       .  S
C349        N351   1.158       .  T
C350        N352   1.157       .  T
C353        C354   1.400       .  A
C353        C358   1.408       .  A
C354        C355   1.404       .  A
C354        H359   1.087       .  S
C355        C356   1.439       .  A
C355        C362   1.444       .  S
C356        C357   1.423       .  A
C357        C358   1.408       .  A
C357        H360   1.084       .  S
C358        C361   1.444       .  S
C361        N871   1.157       .  T
C362        N364   1.158       .  T
N363        C869   1.157       .  T
C365        C366   1.420       .  A
C365        C370   1.441       .  A
C366        C367   1.408       .  A
C366        H371   1.085       .  S
C367        C368   1.414       .  A
C367        C374   1.443       .  S
C368        C369   1.397       .  A
C369        C370   1.398       .  A
C369        H372   1.086       .  S
C370        C373   1.446       .  S
C373        N375   1.158       .  T
C374        N376   1.157       .  T
C377        C378   1.425       .  A
C377        C382   1.434       .  A
C378        C379   1.414       .  A
C378        H383   1.085       .  S
C379        C380   1.406       .  A
C379        C386   1.442       .  S
C380        C381   1.395       .  A
C381        C382   1.393       .  A
C381        H384   1.086       .  S
C382        C385   1.444       .  S
C385        N387   1.158       .  T
C386        N388   1.157       .  T
C389        C390   1.418       .  A
C389        C394   1.429       .  A
C390        C391   1.405       .  A
C390        H395   1.082       .  S
C391        C392   1.413       .  A
C391        C398   1.444       .  S
C392        C393   1.400       .  A
C393        C394   1.398       .  A
C393        H396   1.087       .  S
C394        C397   1.438       .  S
C397        N399   1.155       .  T
C398        N400   1.157       .  T
C401        C402   1.415       .  A
C401        C406   1.434       .  A
C402        C403   1.399       .  A
C402        H407   1.077       .  S
C403        C404   1.409       .  A
C403        C410   1.445       .  S
C404        C405   1.397       .  A
C405        C406   1.406       .  A
C405        H408   1.085       .  S
C406        C409   1.444       .  S
C409        N411   1.157       .  T
C410        N920   1.157       .  T
N412        C918   1.157   1_554  T
C413        C414   1.393       .  A
C413        C418   1.401       .  A
C414        C415   1.399       .  A
C414        H419   1.083       .  S
C415        C416   1.436       .  A
C415        C422   1.443       .  S
C416        C417   1.424       .  A
C417        C418   1.404       .  A
C417        H420   1.084       .  S
C418        C421   1.443       .  S
C421        N423   1.157       .  T
C422        N424   1.158       .  T
C425        C426   1.396       .  A
C425        C430   1.421       .  A
C426        C427   1.401       .  A
C426        H431   1.083       .  S
C427        C428   1.436       .  A
C427        C434   1.446       .  S
C428        C429   1.407       .  A
C429        C430   1.391       .  A
C429        H432   1.080       .  S
C430        C433   1.447       .  S
C433        N435   1.158       .  T
C434        N436   1.157       .  T
C437        C438   1.412       .  A
C437        C442   1.432       .  A
C438        C439   1.396       .  A
C438        H443   1.082       .  S
C439        C440   1.403       .  A
C439        C446   1.429       .  S
C440        C441   1.399       .  A
C441        C442   1.402       .  A
C441        H444   1.086       .  S
C442        C445   1.442       .  S
C445        N447   1.157       .  T
C446        N448   1.153       .  T
C449        C450   1.402       .  A
C449        C454   1.409       .  A
C450        C451   1.402       .  A
C450        H455   1.086       .  S
C451        C452   1.434       .  A
C451        C458   1.443       .  S
C452        C453   1.422       .  A
C453        C454   1.404       .  A
C453        H456   1.085       .  S
C454        C457   1.444       .  S
C457        N459   1.157       .  T
C458        N460   1.157       .  T
C461        C462   1.398       .  A
C461        C466   1.402       .  A
C462        C463   1.401       .  A
C462        H467   1.086       .  S
C463        C464   1.437       .  A
C463        C470   1.445       .  S
C464        C465   1.415       .  A
C465        C466   1.399       .  A
C465        H468   1.077       .  S
C466        C469   1.443       .  S
C469        N471   1.157       .  T
C470        N472   1.158       .  T
C473        C474   1.401       .  A
C473        C478   1.416       .  A
C474        C475   1.406       .  A
C474        H479   1.085       .  S
C475        C476   1.435       .  A
C475        C482   1.443       .  S
C476        C477   1.415       .  A
C477        C478   1.405       .  A
C477        H480   1.085       .  S
C478        C481   1.444       .  S
C481        N483   1.157       .  T
C482        N484   1.158       .  T
C485        C486   1.389       .  A
C485        C490   1.411       .  A
C486        C487   1.403       .  A
C486        H491   1.085       .  S
C487        C488   1.439       .  A
C487        C494   1.441       .  S
C488        C489   1.414       .  A
C489        C490   1.399       .  A
C489        H492   1.081       .  S
C490        C493   1.446       .  S
C493        N495   1.158       .  T
C494        N496   1.157       .  T
C497        C498   1.418       .  A
C497        C502   1.433       .  A
C498        C499   1.399       .  A
C498        H503   1.076       .  S
C499        C500   1.407       .  A
C499        C506   1.444       .  S
C500        C501   1.402       .  A
C501        C502   1.408       .  A
C501        H504   1.084       .  S
C502        C505   1.445       .  S
C505        N507   1.157       .  T
C506        N508   1.156       .  T
O509        C517   1.259       .  A
O509       Co529   1.969       .  S
O510        C518   1.264       .  A
O510       Co530   1.884       .  S
O511        C519   1.281       .  A
O511       Co531   2.038       .  S
O512        C520   1.270       .  A
O512       Co532   2.030       .  S
O513        C519   1.269       .  A
O513       Co530   1.964       .  S
O514        C520   1.258       .  A
O514       Co529   1.967       .  S
O515        C518   1.300       .  A
O515       Co532   2.115       .  S
O516        C517   1.272       .  A
O516       Co531   2.028       .  S
C517       C1008   1.487       .  S
C518        C969   1.479       .  S
C519        C957   1.494       .  S
C520        C948   1.480       .  S
O521        C534   1.274       .  A
O521       Co529   2.019       .  S
O522        C535   1.260       .  A
O522       Co530   2.032       .  S
O523        C536   1.245       .  A
O523       Co531   1.926       .  S
O524        C537   1.268       .  A
O524       Co532   1.892       .  S
O525        C537   1.295       .  A
O525       Co530   2.102       .  S
O526        C536   1.278       .  A
O526       Co529   2.051       .  S
O527        C534   1.272       .  A
O527       Co532   1.988       .  S
O528        C535   1.244       .  A
O528       Co531   1.945       .  S
Co529       O533   2.040       .  S
Co530       O533   2.016       .  S
Co531       O533   2.010       .  S
Co532       O533   2.009       .  S
C534        C981   1.500       .  S
C535        C993   1.479       .  S
C536        C933   1.485       .  S
C537        C921   1.472       .  S
O538        C546   1.252       .  A
O538       Co558   2.003       .  S
O539        C547   1.255       .  A
O539       Co559   1.952       .  S
O540        C548   1.271       .  A
O540       Co560   2.017   1_455  S
O541        C549   1.246       .  A
O541       Co561   1.965   1_655  S
O542        C548   1.264       .  A
O542       Co559   1.978       .  S
O543        C549   1.255       .  A
O543       Co558   1.994       .  S
O544        C547   1.272       .  A
O544       Co561   2.036       .  S
O545        C546   1.247       .  A
O545       Co560   1.969       .  S
C546        C900   1.495       .  S
C547        C840   1.484       .  S
C548        C828   1.484       .  S
C549        C852   1.479       .  S
O550        C563   1.303       .  A
O551        C564   1.266       .  A
O552        C565   1.271       .  A
O553        C566   1.259       .  A
O554        C566   1.271       .  A
O555        C565   1.302       .  A
O556        C563   1.273       .  A
O557        C564   1.265       .  A
Co558       O562   2.244   1_655  S
Co559       O562   2.064       .  S
Co560       O562   1.932   1_655  S
Co561       O562   1.942       .  S
C563        C876   1.497       .  S
C564        C888   1.491       .  S
C565        C912   1.483       .  S
C566        C861   1.498       .  S
C567        C801   1.582       .  S
C567        C816   1.585       .  S
C567        C909   1.573       .  S
C567        C984   1.580       .  S
O568        C576   1.264       .  A
O568       Co588   1.999   1_556  S
O569        C577   1.241       .  A
O570        C578   1.259       .  A
O570       Co590   1.962       .  S
O571        C579   1.257       .  A
O571       Co591   2.014       .  S
O572        C578   1.274       .  A
O572       Co589   2.031   1_556  S
O573        C579   1.246       .  A
O574        C577   1.254       .  A
O574       Co591   2.001   1_565  S
O575        C576   1.253       .  A
O575       Co590   1.949   1_545  S
C576        C765   1.474       .  S
C577        C744   1.473       .  S
C578        C789   1.479       .  S
C579        C729   1.486       .  S
O580        C593   1.271       .  A
O581        C594   1.261       .  A
O581       Co589   1.990   1_556  S
O582        C595   1.268       .  A
O582       Co590   2.015   1_545  S
O583        C596   1.302       .  A
O583       Co591   2.085   1_565  S
O584        C596   1.273       .  A
O585        C595   1.263       .  A
O585       Co588   1.992   1_556  S
O586        C593   1.302       .  A
O586       Co591   2.082       .  S
O587        C594   1.268       .  A
O587       Co590   2.014       .  S
Co588       O592   1.929   1_544  S
Co589       O592   1.925   1_554  S
Co590       O592   2.060       .  S
C593        C717   1.474       .  S
C594        C756   1.504       .  S
C595        C813   1.484       .  S
C596        C780   1.490       .  S
C597        C705   1.574       .  S
C597        C792   1.572       .  S
C597        C864   1.588       .  S
C597        C996   1.579       .  S
O598        C606   1.253       .  A
O598       Co618   1.951       .  S
O599        C607   1.258       .  A
O599       Co619   1.881       .  S
O600        C608   1.279       .  A
O600       Co620   2.032   1_565  S
O601        C609   1.265       .  A
O601       Co621   2.043   1_545  S
O602        C608   1.263       .  A
O602       Co619   1.954   1_655  S
O603        C609   1.242       .  A
O603       Co618   1.945   1_455  S
O604        C607   1.300       .  A
O604       Co621   2.116       .  S
O605        C606   1.270       .  A
O605       Co620   2.034       .  S
C606        C804   1.482       .  S
C607        C708   1.497       .  S
C608        C657   1.468       .  S
C609        C636   1.478       .  S
O610        C623   1.281       .  A
O610       Co618   2.042   1_455  S
O611        C624   1.259       .  A
O611       Co619   2.014   1_655  S
O612        C625   1.255       .  A
O612       Co620   1.941       .  S
O613        C626   1.269       .  A
O613       Co621   1.894       .  S
O614        C626   1.297       .  A
O614       Co619   2.098       .  S
O615        C625   1.273       .  A
O615       Co618   2.030       .  S
O616        C623   1.261       .  A
O616       Co621   1.964   1_545  S
O617        C624   1.248       .  A
O617       Co620   1.953   1_565  S
Co618       O622   2.012       .  S
Co619       O622   2.004   1_465  S
Co620       O622   2.033       .  S
Co621       O622   2.043   1_465  S
C623        C645   1.478       .  S
C624        C684   1.471       .  S
C625        C696   1.482       .  S
C626        C672   1.489       .  S
C627        C681   1.573       .  S
C627        C777   1.573       .  S
C627        C849   1.563       .  S
C627        C972   1.568       .  S
C628        C648   1.580       .  S
C628        C732   1.590       .  S
C628        C825   1.582       .  S
C628       C1005   1.578       .  S
C629        C693   1.566       .  S
C629        C720   1.564       .  S
C629        C897   1.578       .  S
C629        C945   1.568       .  S
C630        C669   1.571       .  S
C630        C741   1.568       .  S
C630        C837   1.584       .  S
C630        C960   1.583       .  S
C631        C633   1.576       .  S
C631        C768   1.564       .  S
C631        C885   1.580       .  S
C631        C936   1.565       .  S
C632        C660   1.576       .  S
C632        C753   1.594       .  S
C632        C873   1.590       .  S
C632        C924   1.568       .  S
C633        C634   1.417       .  A
C633        C638   1.424       .  A
C634        C635   1.397       .  A
C634        H639   1.082       .  S
C635        C636   1.406       .  A
C635        C642   1.439       .  S
C636        C637   1.404       .  A
C637        C638   1.403       .  A
C637        H640   1.085       .  S
C638        C641   1.442       .  S
C641        N643   1.157       .  T
C642        N644   1.156       .  T
C645        C646   1.396       .  A
C645        C650   1.396       .  A
C646        C647   1.403       .  A
C646        H651   1.086       .  S
C647        C648   1.431       .  A
C647        C654   1.442       .  S
C648        C649   1.426       .  A
C649        C650   1.404       .  A
C649        H652   1.079       .  S
C650        C653   1.439       .  S
C653        N655   1.156   1_455  T
C654        N656   1.157       .  T
C657        C658   1.396       .  A
C657        C662   1.397       .  A
C658        C659   1.397       .  A
C658        H663   1.087       .  S
C659        C660   1.434       .  A
C659        C666   1.443       .  S
C660        C661   1.426       .  A
C661        C662   1.399       .  A
C661        H664   1.074       .  S
C662        C665   1.443       .  S
C665        N667   1.157   1_565  T
C666        N668   1.157       .  T
C669        C670   1.418       .  A
C669        C674   1.431       .  A
C670        C671   1.404       .  A
C670        H675   1.069       .  S
C671        C672   1.409       .  A
C671        C678   1.442       .  S
C672        C673   1.400       .  A
C673        C674   1.400       .  A
C673        H676   1.084       .  S
C674        C677   1.443       .  S
C677        N679   1.157       .  T
C678        N680   1.157       .  T
C681        C682   1.414       .  A
C681        C686   1.441       .  A
C682        C683   1.396       .  A
C682        H687   1.081       .  S
C683        C684   1.407       .  A
C683        C690   1.446       .  S
C684        C685   1.391       .  A
C685        C686   1.401       .  A
C685        H688   1.086       .  S
C686        C689   1.445       .  S
C689        N691   1.158       .  T
C690        N692   1.157       .  T
C693        C694   1.424       .  A
C693        C698   1.432       .  A
C694        C695   1.399       .  A
C694        H699   1.083       .  S
C695        C696   1.402       .  A
C695        C702   1.443       .  S
C696        C697   1.402       .  A
C697        C698   1.396       .  A
C697        H700   1.086       .  S
C698        C701   1.443       .  S
C701        N703   1.158       .  T
C702        N704   1.157       .  T
C705        C706   1.416       .  A
C705        C710   1.433       .  A
C706        C707   1.395       .  A
C706        H711   1.085       .  S
C707        C708   1.416       .  A
C707        C714   1.446       .  S
C708        C709   1.402       .  A
C709        C710   1.412       .  A
C709        H712   1.084       .  S
C710        C713   1.437       .  S
C713        N715   1.156       .  T
C714        N716   1.158       .  T
C717        C718   1.397       .  A
C717        C722   1.404       .  A
C718        C719   1.399       .  A
C718        H723   1.086       .  S
C719        C720   1.432       .  A
C719        C726   1.444       .  S
C720        C721   1.418       .  A
C721        C722   1.401       .  A
C721        H724   1.083       .  S
C722        C725   1.443       .  S
C725        N727   1.157       .  T
C726        N728   1.158       .  T
C729        C730   1.393       .  A
C729        C734   1.404       .  A
C730        C731   1.403       .  A
C730        H735   1.087       .  S
C731        C732   1.443       .  A
C731        C738   1.443       .  S
C732        C733   1.423       .  A
C733        C734   1.409       .  A
C733        H736   1.085       .  S
C734        C737   1.443       .  S
C737        N739   1.157       .  T
C738        N740   1.158       .  T
C741        C742   1.420       .  A
C741        C746   1.438       .  A
C742        C743   1.396       .  A
C742        H747   1.082       .  S
C743        C744   1.405       .  A
C743        C750   1.445       .  S
C744        C745   1.394       .  A
C745        C746   1.403       .  A
C745        H748   1.086       .  S
C746        C749   1.442       .  S
C749        N751   1.158       .  T
C750        N752   1.157       .  T
C753        C754   1.420       .  A
C753        C758   1.436       .  A
C754        C755   1.408       .  A
C754        H759   1.070       .  S
C755        C756   1.412       .  A
C755        C762   1.441       .  S
C756        C757   1.402       .  A
C757        C758   1.401       .  A
C757        H760   1.084       .  S
C758        C761   1.445       .  S
C761        N763   1.157       .  T
C765        C766   1.396       .  A
C765        C770   1.410       .  A
C766        C767   1.397       .  A
C766        H771   1.086       .  S
C767        C768   1.438       .  A
C767        C774   1.443       .  S
C768        C769   1.412       .  A
C769        C770   1.389       .  A
C769        H772   1.072       .  S
C770        C773   1.445       .  S
C773        N775   1.157       .  T
C774        N776   1.158       .  T
C777        C778   1.420       .  A
C777        C782   1.430       .  A
C778        C779   1.407       .  A
C778        H783   1.080       .  S
C779        C780   1.412       .  A
C779        C786   1.444       .  S
C780        C781   1.396       .  A
C781        C782   1.393       .  A
C781        H784   1.085       .  S
C782        C785   1.440       .  S
C785        N787   1.157       .  T
C786        N788   1.157       .  T
C789        C790   1.402       .  A
C789        C794   1.402       .  A
C790        C791   1.403       .  A
C790        H795   1.085       .  S
C791        C792   1.425       .  A
C791        C798   1.442       .  S
C792        C793   1.425       .  A
C793        C794   1.400       .  A
C793        H796   1.081       .  S
C794        C797   1.444       .  S
C797        N799   1.157       .  T
C798        N800   1.157       .  T
C801        C802   1.422       .  A
C801        C806   1.434       .  A
C802        C803   1.405       .  A
C802        H807   1.078       .  S
C803        C804   1.406       .  A
C803        C810   1.445       .  S
C804        C805   1.397       .  A
C805        C806   1.398       .  A
C805        H808   1.087       .  S
C806        C809   1.445       .  S
C809        N811   1.158       .  T
C810        N812   1.157       .  T
C813        C814   1.402       .  A
C813        C818   1.402       .  A
C814        C815   1.409       .  A
C814        H819   1.083       .  S
C815        C816   1.429       .  A
C815        C822   1.442       .  S
C816        C817   1.423       .  A
C817        C818   1.399       .  A
C817        H820   1.079       .  S
C818        C821   1.440       .  S
C821        N823   1.155   1_545  T
C822        N824   1.157       .  T
C825        C826   1.421       .  A
C825        C830   1.436       .  A
C826        C827   1.403       .  A
C826        H831   1.068       .  S
C827        C828   1.403       .  A
C827        C834   1.442       .  S
C828        C829   1.397       .  A
C829        C830   1.400       .  A
C829        H832   1.085       .  S
C830        C833   1.445       .  S
C833        N835   1.158       .  T
C837        C838   1.418       .  A
C837        C842   1.435       .  A
C838        C839   1.389       .  A
C838        H843   1.080       .  S
C839        C840   1.410       .  A
C839        C846   1.449       .  S
C840        C841   1.399       .  A
C841        C842   1.410       .  A
C841        H844   1.083       .  S
C842        C845   1.443       .  S
C845        N847   1.157       .  T
C846        N848   1.158       .  T
C849        C850   1.422       .  A
C849        C854   1.430       .  A
C850        C851   1.396       .  A
C850        H855   1.083       .  S
C851        C852   1.404       .  A
C851        C858   1.444       .  S
C852        C853   1.399       .  A
C853        C854   1.404       .  A
C853        H856   1.085       .  S
C854        C857   1.440       .  S
C857        N859   1.158       .  T
C858        N860   1.157       .  T
C861        C862   1.400       .  A
C861        C866   1.408       .  A
C862        C863   1.404       .  A
C862        H867   1.087       .  S
C863        C864   1.439       .  A
C863        C870   1.444       .  S
C864        C865   1.423       .  A
C865        C866   1.408       .  A
C865        H868   1.084       .  S
C866        C869   1.444       .  S
C870        N872   1.158       .  T
C873        C874   1.420       .  A
C873        C878   1.441       .  A
C874        C875   1.408       .  A
C874        H879   1.085       .  S
C875        C876   1.414       .  A
C875        C882   1.443       .  S
C876        C877   1.397       .  A
C877        C878   1.398       .  A
C877        H880   1.086       .  S
C878        C881   1.446       .  S
C881        N883   1.158       .  T
C882        N884   1.157       .  T
C885        C886   1.425       .  A
C885        C890   1.434       .  A
C886        C887   1.414       .  A
C886        H891   1.085       .  S
C887        C888   1.406       .  A
C887        C894   1.442       .  S
C888        C889   1.395       .  A
C889        C890   1.393       .  A
C889        H892   1.086       .  S
C890        C893   1.444       .  S
C893        N895   1.158       .  T
C894        N896   1.157       .  T
C897        C898   1.418       .  A
C897        C902   1.429       .  A
C898        C899   1.405       .  A
C898        H903   1.082       .  S
C899        C900   1.413       .  A
C899        C906   1.444       .  S
C900        C901   1.400       .  A
C901        C902   1.398       .  A
C901        H904   1.087       .  S
C902        C905   1.438       .  S
C905        N907   1.155       .  T
C906        N908   1.157       .  T
C909        C910   1.415       .  A
C909        C914   1.434       .  A
C910        C911   1.399       .  A
C910        H915   1.077       .  S
C911        C912   1.409       .  A
C911        C918   1.445       .  S
C912        C913   1.397       .  A
C913        C914   1.406       .  A
C913        H916   1.085       .  S
C914        C917   1.444       .  S
C917        N919   1.157       .  T
C921        C922   1.393       .  A
C921        C926   1.401       .  A
C922        C923   1.399       .  A
C922        H927   1.083       .  S
C923        C924   1.436       .  A
C923        C930   1.443       .  S
C924        C925   1.424       .  A
C925        C926   1.404       .  A
C925        H928   1.084       .  S
C926        C929   1.443       .  S
C929        N931   1.157       .  T
C930        N932   1.158       .  T
C933        C934   1.396       .  A
C933        C938   1.421       .  A
C934        C935   1.401       .  A
C934        H939   1.083       .  S
C935        C936   1.436       .  A
C935        C942   1.446       .  S
C936        C937   1.407       .  A
C937        C938   1.391       .  A
C937        H940   1.080       .  S
C938        C941   1.447       .  S
C941        N943   1.158       .  T
C942        N944   1.157       .  T
C945        C946   1.412       .  A
C945        C950   1.432       .  A
C946        C947   1.396       .  A
C946        H951   1.082       .  S
C947        C948   1.403       .  A
C947        C954   1.429       .  S
C948        C949   1.399       .  A
C949        C950   1.402       .  A
C949        H952   1.086       .  S
C950        C953   1.442       .  S
C953        N955   1.157       .  T
C954        N956   1.153       .  T
C957        C958   1.402       .  A
C957        C962   1.409       .  A
C958        C959   1.402       .  A
C958        H963   1.086       .  S
C959        C960   1.434       .  A
C959        C966   1.443       .  S
C960        C961   1.422       .  A
C961        C962   1.404       .  A
C961        H964   1.085       .  S
C962        C965   1.444       .  S
C965        N967   1.157       .  T
C966        N968   1.157       .  T
C969        C970   1.398       .  A
C969        C974   1.402       .  A
C970        C971   1.401       .  A
C970        H975   1.086       .  S
C971        C972   1.437       .  A
C971        C978   1.445       .  S
C972        C973   1.415       .  A
C973        C974   1.399       .  A
C973        H976   1.077       .  S
C974        C977   1.443       .  S
C977        N979   1.157       .  T
C978        N980   1.158       .  T
C981        C982   1.401       .  A
C981        C986   1.416       .  A
C982        C983   1.406       .  A
C982        H987   1.085       .  S
C983        C984   1.435       .  A
C983        C990   1.443       .  S
C984        C985   1.415       .  A
C985        C986   1.405       .  A
C985        H988   1.085       .  S
C986        C989   1.444       .  S
C989        N991   1.157       .  T
C990        N992   1.158       .  T
C993        C994   1.389       .  A
C993        C998   1.411       .  A
C994        C995   1.403       .  A
C994        H999   1.085       .  S
C995        C996   1.439       .  A
C995       C1002   1.441       .  S
C996        C997   1.414       .  A
C997        C998   1.399       .  A
C997       H1000   1.081       .  S
C998       C1001   1.446       .  S
C1001      N1003   1.158       .  T
C1002      N1004   1.157       .  T
C1005      C1006   1.418       .  A
C1005      C1010   1.433       .  A
C1006      C1007   1.399       .  A
C1006      H1011   1.076       .  S
C1007      C1008   1.407       .  A
C1007      C1014   1.444       .  S
C1008      C1009   1.402       .  A
C1009      C1010   1.408       .  A
C1009      H1012   1.084       .  S
C1010      C1013   1.445       .  S
C1013      N1015   1.157       .  T
C1014      N1016   1.156       .  T
