geometry optimzed in LAMMPS
_audit_creation_date              2020-11-30 
_audit_creation_method            'lammps2cif' 
_symmetry_space_group_name_H-M    'P1' 
_symmetry_Int_Tables_number       1 
_symmetry_cell_setting            triclinic 
loop_ 
_symmetry_equiv_pos_as_xyz 
  x,y,z 
_cell_length_a                    31.60065922 
_cell_length_b                    32.77500978921368 
_cell_length_c                    31.07471735622862 
_cell_angle_alpha                 90.33834237456563 
_cell_angle_beta                  90.6414345966906 
_cell_angle_gamma                 90.08129282830689 
loop_ 
_atom_site_label 
_atom_site_type_symbol 
_atom_site_fract_x 
_atom_site_fract_y 
_atom_site_fract_z 
_atom_site_charge 
O1          O  0.46188261  0.41494387  0.48328733    -0.79600
O2          O  0.53848012  0.56944580  0.45541006    -0.79600
O3          O  0.44857249  0.54497602  0.43476521    -0.79700
O4          O  0.59304291  0.45892685  0.48069287    -0.79600
O5          O  0.46402847  0.59311157  0.48004772    -0.79700
O6          O  0.53529017  0.43178420  0.45929330    -0.79600
O7          O  0.59385080  0.53903827  0.47953327    -0.79600
O8          O  0.44635909  0.46174345  0.43576676    -0.79700
C9          C  0.44769356  0.42457151  0.44640299     1.10100
C10         C  0.57718302  0.56245804  0.45259136     1.10000
C11         C  0.44570587  0.58195831  0.44526038     1.10100
C12         C  0.57413203  0.43559983  0.45468908     1.10000
O13         O  0.52910155  0.40054928  0.54045781    -0.79600
O14         O  0.47449193  0.55367555  0.56309022    -0.79700
O15         O  0.41665165  0.46507059  0.52223302    -0.79600
O16         O  0.55930813  0.54773172  0.56480676    -0.79600
O17         O  0.53625667  0.60492215  0.53388749    -0.79700
O18         O  0.47139490  0.45777426  0.56477720    -0.79600
O19         O  0.55824118  0.45675900  0.56785722    -0.79600
O20         O  0.41791864  0.54670518  0.52289392    -0.79700
Co21       Co  0.50692236  0.44753932  0.51323311     1.51500
Co22       Co  0.50903498  0.55897387  0.50968849     1.51700
Co23       Co  0.43713030  0.50455306  0.47930670     1.51600
Co24       Co  0.56722220  0.50074184  0.52040674     1.51500
O25         O  0.50125468  0.50258852  0.49260334    -1.41600
C26         C  0.55471621  0.41715732  0.56709203     1.10000
C27         C  0.43481807  0.55767865  0.55841086     1.10100
C28         C  0.43202293  0.45378412  0.55785108     1.10000
C29         C  0.56092574  0.58718039  0.56041652     1.10000
O30         O  0.96758205  0.41567665  0.98698888    -0.79600
O31         O  0.04890158  0.58485682  0.98926059    -0.79600
O32         O  0.94867371  0.54578107  0.94416014    -0.79700
O33         O  0.10928165  0.46946710  0.98439890    -0.79600
O34         O  0.96313397  0.59440915  0.99075249    -0.79700
O35         O  0.04851947  0.44089367  0.96546143    -0.79600
O36         O  0.05808010  0.52909342  0.95046810    -0.79600
O37         O  0.95661736  0.46493270  0.94357601    -0.79700
C38         C  0.95250830  0.42781930  0.95142493     1.10100
C39         C  0.06202260  0.56742371  0.95481636     1.10000
C40         C  0.94878136  0.58309205  0.95420508     1.10100
C41         C  0.08927540  0.44314769  0.96215392     1.10000
O42         O  0.03589273  0.40081277  0.03883315    -0.79600
O43         O  0.95959237  0.55559330  0.07411443    -0.79700
O44         O  0.91804024  0.46113082  0.03153938    -0.79600
O45         O  0.09418142  0.53663973  0.03471471    -0.79600
O46         O  0.04343255  0.54996374  0.07769995    -0.79700
O47         O  0.97531365  0.45081140  0.07138792    -0.79600
O48         O  0.06726806  0.45847870  0.05745861    -0.79600
O49         O  0.90921917  0.54523857  0.02651196    -0.79700
Co50       Co  0.01129363  0.44987831  0.01981451     1.51500
Co51       Co  0.00374590  0.56751104  0.03250983     1.51700
Co52       Co  0.93692431  0.50397070  0.98731452     1.51600
Co53       Co  0.05862161  0.49444489  0.00255111     1.51500
O54         O  0.99714473  0.50943465  0.01052423    -1.41600
C55         C  0.06418157  0.41914562  0.06052899     1.10000
C56         C  0.92191219  0.56055181  0.06202442     1.10100
C57         C  0.93577775  0.44713820  0.06578495     1.10000
C58         C  0.08183235  0.55332589  0.06920961     1.10000
C59         C  0.75850435  0.24571551  0.75670958    -0.02000
O60         O  0.43083726  0.06242682  0.94673373    -0.79600
O61         O  0.47247617  0.91624870  0.02877964    -0.79600
O62         O  0.44776246  0.97146375  0.91721751    -0.79700
O63         O  0.47394755  0.04054088  0.08512460    -0.79600
O64         O  0.47454281  0.91762331  0.94391049    -0.79700
O65         O  0.43070444  0.06195701  0.03469418    -0.79600
O66         O  0.44631416  0.96938080  0.05883118    -0.79600
O67         O  0.47395146  0.04298267  0.89588485    -0.79700
C68         C  0.43956349  0.05985443  0.90715905     1.10100
C69         C  0.44529104  0.93166572  0.05281164     1.10000
C70         C  0.44624182  0.93361529  0.92088692     1.10100
C71         C  0.44025321  0.05869737  0.07404761     1.10000
O72         O  0.51904493  0.08689044  0.03644280    -0.79600
O73         O  0.55737498  0.95687122  0.94559812    -0.79700
O74         O  0.55459027  0.03233778  0.94003206    -0.79600
O75         O  0.52376853  0.97129921  0.09800387    -0.79600
O76         O  0.55563338  0.95098014  0.03873727    -0.79700
O77         O  0.51810071  0.08776437  0.94812710    -0.79600
O78         O  0.55463746  0.03041369  0.04557320    -0.79600
O79         O  0.52852216  0.97332173  0.88294501    -0.79700
Co80       Co  0.47516930  0.06994860  0.99145895     1.51500
Co81       Co  0.51197922  0.94385491  0.98924784     1.51700
Co82       Co  0.50201972  0.99934624  0.93118749     1.51600
Co83       Co  0.50096351  0.99750663  0.04909536     1.51500
O84         O  0.48417911  0.00712901  0.99011376    -1.41600
C85         C  0.55202446  0.06878059  0.05024560     1.10000
C86         C  0.55529069  0.95225360  0.90441540     1.10100
C87         C  0.55140176  0.07030540  0.93528639     1.10000
C88         C  0.55168673  0.94938741  0.08018753     1.10000
C89         C  0.24229290  0.74296394  0.74604926    -0.02000
O90         O  0.95551075  0.08752258  0.52049526    -0.79600
O91         O  0.03631879  0.92068443  0.51913780    -0.79600
O92         O  0.89405223  0.97099096  0.52129140    -0.79700
O93         O  0.05454526  0.05192683  0.56212809    -0.79600
O94         O  0.95525721  0.94316847  0.53918902    -0.79700
O95         O  0.04178291  0.09872624  0.51395000    -0.79600
O96         O  0.05122351  0.96908459  0.56413418    -0.79600
O97         O  0.94455204  0.03059884  0.55724220    -0.79700
C98         C  0.94151922  0.06899465  0.55382693     1.10100
C99         C  0.05348045  0.93184677  0.55440141     1.10000
C100        C  0.91455196  0.94488244  0.54285017     1.10100
C101        C  0.05808202  0.08831660  0.54982147     1.10000
O102        O  0.04061618  0.05674433  0.43178776    -0.79600
O103        O  0.96943513  0.90519694  0.46367010    -0.79700
O104        O  0.90773412  0.03986716  0.47455773    -0.79600
O105        O  0.08665103  0.96605187  0.47732370    -0.79600
O106        O  0.03101035  0.95689042  0.43578812    -0.79700
O107        O  0.95683909  0.05380755  0.43000514    -0.79600
O108        O  0.09281457  0.04910967  0.47805701    -0.79600
O109        O  0.93818281  0.96319045  0.44729060    -0.79700
Co110      Co  0.99863767  0.07056945  0.47486848     1.51500
Co111      Co  0.99313949  0.95411535  0.48594789     1.51700
Co112      Co  0.94474010  0.99734974  0.50421371     1.51600
Co113      Co  0.06715932  0.00902709  0.51987358     1.51500
O114        O  0.00612828  0.01322207  0.49768160    -1.41600
C115        C  0.07888381  0.06143674  0.44183794     1.10000
C116        C  0.94261755  0.92429051  0.44083971     1.10100
C117        C  0.91850133  0.05575448  0.43938986     1.10000
C118        C  0.07037154  0.95240483  0.44233274     1.10000
C119        C  0.74200362  0.75069025  0.25066817    -0.02000
C120        C  0.25961599  0.24832783  0.25435984    -0.02000
C121        C  0.74546880  0.25354033  0.24426598    -0.02000
C122        C  0.25504834  0.76218128  0.25162622    -0.02000
C123        C  0.25219683  0.26425383  0.74659562    -0.02000
C124        C  0.76048450  0.75730246  0.75448161    -0.02000
C125        C  0.10349255  0.18672774  0.60037570    -0.04900
C126        C  0.13734275  0.17137172  0.62561876     0.09200
C127        C  0.14650898  0.12914207  0.62371225    -0.02300
C128        C  0.12145045  0.10258892  0.59813395    -0.00600
C129        C  0.08557450  0.11742583  0.57519735    -0.04200
C130        C  0.07729522  0.15994661  0.57597200     0.02800
C131        C  0.16429628  0.19958328  0.65320452     0.09700
C132        C  0.18270525  0.11266497  0.64693506     0.35500
C133        C  0.04125226  0.17632735  0.55255460     0.39000
C134        C  0.14764650  0.21952827  0.68938073    -0.04600
C135        C  0.17362371  0.24479028  0.71608541     0.02600
C136        C  0.21921191  0.24479422  0.71213324    -0.04200
C137        C  0.23466648  0.22491732  0.67355597    -0.00400
C138        C  0.20698365  0.20565329  0.64355013    -0.03000
C139        C  0.10317833  0.21382998  0.69939928     0.36300
C140        C  0.27918319  0.22064987  0.66399528     0.39900
C141        C  0.15073347  0.27219377  0.74387633     0.39000
C142        C  0.22275957  0.19079446  0.60251815     0.36000
C143        C  0.09637547  0.23039629  0.59859385     0.36700
C144        C  0.13442987  0.06022586  0.59383969     0.39900
N145        N  0.12973240  0.29376293  0.76402738    -0.38200
N146        N  0.06777404  0.20939679  0.70731651    -0.39800
N147        N  0.31343345  0.21494140  0.65264508    -0.37500
N148        N  0.23524313  0.17907229  0.56983423    -0.39900
N149        N  0.21180063  0.09870042  0.66432045    -0.39700
N150        N  0.14508163  0.02660324  0.59028626    -0.37300
N151        N  0.01247075  0.18942592  0.53390977    -0.38400
N152        N  0.09092645  0.26527543  0.59720868    -0.40000
C153        C  0.11165882  0.14742780  0.36824449    -0.04900
C154        C  0.15411151  0.13740966  0.36024621     0.09200
C155        C  0.17212836  0.10207577  0.37835327    -0.02300
C156        C  0.14801428  0.07731565  0.40569390    -0.00600
C157        C  0.10522011  0.08695153  0.41350569    -0.04200
C158        C  0.08718215  0.12235846  0.39463984     0.02800
C159        C  0.18056813  0.16541007  0.33439286     0.09700
C160        C  0.21555024  0.09130504  0.36869093     0.35500
C161        C  0.04392769  0.13454638  0.40378556     0.39000
C162        C  0.20608000  0.19443979  0.35516381    -0.04600
C163        C  0.23147333  0.22152190  0.33130401     0.02600
C164        C  0.23115328  0.22055373  0.28476488    -0.04200
C165        C  0.20366339  0.19010192  0.26488057    -0.00400
C166        C  0.17917330  0.16324442  0.28962060    -0.03000
C167        C  0.20595721  0.19616349  0.40205589     0.36300
C168        C  0.19729159  0.18672276  0.21864898     0.39900
C169        C  0.25812515  0.24774349  0.35738170     0.39000
C170        C  0.15110074  0.13362279  0.26891404     0.36000
C171        C  0.09301796  0.18388585  0.34981105     0.36700
C172        C  0.16770588  0.04240135  0.42587231     0.39900
N173        N  0.27800255  0.26666072  0.38179567    -0.38200
N174        N  0.20577240  0.19742911  0.43928077    -0.39800
N175        N  0.18955812  0.18174015  0.18250588    -0.37500
N176        N  0.12850338  0.11031825  0.25249209    -0.39900
N177        N  0.25009930  0.08262980  0.36078255    -0.39700
N178        N  0.18460209  0.01518530  0.44209827    -0.37300
N179        N  0.00949636  0.14432192  0.41084235    -0.38400
N180        N  0.07697571  0.21259695  0.33561651    -0.40000
C181        C  0.80357794  0.85430496  0.68992146    -0.04900
C182        C  0.83048459  0.83568599  0.66051305     0.09200
C183        C  0.83561458  0.79348577  0.66088938    -0.02300
C184        C  0.81409417  0.76929240  0.69122195    -0.00600
C185        C  0.78598690  0.78702625  0.72291071    -0.04200
C186        C  0.78200936  0.83107736  0.72112113     0.02800
C187        C  0.85365172  0.86142463  0.62905124     0.09700
C188        C  0.86434797  0.77504128  0.63011247     0.35500
C189        C  0.75564007  0.85548202  0.74860306     0.39000
C190        C  0.89095578  0.88193693  0.64196420    -0.04600
C191        C  0.90996249  0.91021454  0.61429568     0.02600
C192        C  0.89254574  0.91731279  0.57297079    -0.04200
C193        C  0.85505657  0.89661333  0.56008186    -0.00400
C194        C  0.83581651  0.86864498  0.58807342    -0.03000
C195        C  0.90950634  0.87455278  0.68408064     0.36300
C196        C  0.83596570  0.90373970  0.51817355     0.39900
C197        C  0.94570229  0.93414239  0.62969816     0.39000
C198        C  0.79732753  0.84746272  0.57504608     0.36000
C199        C  0.79754429  0.89836197  0.68702832     0.36700
C200        C  0.82578741  0.72657163  0.69106593     0.39900
N201        N  0.97371339  0.95372172  0.64229971    -0.38200
N202        N  0.92500128  0.86916899  0.71747201    -0.39800
N203        N  0.81977070  0.90909731  0.48511838    -0.37500
N204        N  0.76671030  0.83041191  0.56479862    -0.39900
N205        N  0.88729647  0.76049588  0.60566310    -0.39700
N206        N  0.83889863  0.69372449  0.68829127    -0.37300
N207        N  0.73635729  0.87938656  0.76756962    -0.38400
N208        N  0.79274067  0.93325791  0.68436187    -0.40000
C209        C  0.10272860  0.88284935  0.34729002    -0.04900
C210        C  0.14629855  0.87660911  0.35544832     0.09200
C211        C  0.16527999  0.89682767  0.39105622    -0.02300
C212        C  0.14033474  0.91879870  0.42067061    -0.00600
C213        C  0.09708803  0.92785375  0.41112165    -0.04200
C214        C  0.07926631  0.91068547  0.37268146     0.02800
C215        C  0.17213981  0.84741986  0.32833411     0.09700
C216        C  0.21077565  0.89427614  0.39794926     0.35500
C217        C  0.03680771  0.92115521  0.35842327     0.39000
C218        C  0.17891439  0.85411402  0.28420107    -0.04600
C219        C  0.20305646  0.82604276  0.25941200     0.02600
C220        C  0.22710980  0.79364001  0.27955187    -0.04200
C221        C  0.22540382  0.79369268  0.32600935    -0.00400
C222        C  0.19310284  0.81454541  0.34790562    -0.03000
C223        C  0.16052983  0.88987581  0.26394644     0.36300
C224        C  0.26034561  0.78153665  0.35366680     0.39900
C225        C  0.20101903  0.83121858  0.21315231     0.39000
C226        C  0.18365463  0.80374867  0.39211374     0.36000
C227        C  0.08138296  0.85944489  0.31370805     0.36700
C228        C  0.15939277  0.92906080  0.46206325     0.39900
N229        N  0.19760494  0.83763377  0.17669491    -0.38200
N230        N  0.14578964  0.91828759  0.24774050    -0.39800
N231        N  0.28780128  0.77358981  0.37710500    -0.37500
N232        N  0.17626828  0.79520514  0.42733004    -0.39900
N233        N  0.24697598  0.89203837  0.40348627    -0.39700
N234        N  0.17479376  0.93648494  0.49518170    -0.37300
N235        N  0.00316411  0.92961987  0.34641399    -0.38400
N236        N  0.06408693  0.84069957  0.28716589    -0.40000
C237        C  0.85113528  0.89516471  0.36483934    -0.04900
C238        C  0.86382137  0.85627762  0.35049322     0.09200
C239        C  0.90425656  0.84157333  0.36176617    -0.02300
C240        C  0.93077461  0.86422892  0.38988727    -0.00600
C241        C  0.91701015  0.90228270  0.40702203    -0.04200
C242        C  0.87723547  0.91794021  0.39318433     0.02800
C243        C  0.83366981  0.82933946  0.32586711     0.09700
C244        C  0.91835987  0.80273382  0.34443412     0.35500
C245        C  0.86111556  0.95635465  0.40967687     0.39000
C246        C  0.83299049  0.82946899  0.28096874    -0.04600
C247        C  0.80505226  0.80356277  0.25757286     0.02600
C248        C  0.77580766  0.77636344  0.27894651    -0.04200
C249        C  0.78017181  0.77496720  0.32537603    -0.00400
C250        C  0.80792415  0.80187712  0.34791528    -0.03000
C251        C  0.86111991  0.85729388  0.25874012     0.36300
C252        C  0.76050421  0.74454541  0.35204538     0.39900
C253        C  0.80639701  0.80791326  0.21123566     0.39000
C254        C  0.81106902  0.80086447  0.39470975     0.36000
C255        C  0.81095240  0.91212994  0.35090199     0.36700
C256        C  0.97212672  0.84778891  0.40081390     0.39900
N257        N  0.81064565  0.81397803  0.17489002    -0.38200
N258        N  0.88349621  0.87948009  0.24115044    -0.39800
N259        N  0.74725927  0.72097801  0.37598727    -0.37500
N260        N  0.81389166  0.80011038  0.43186381    -0.39900
N261        N  0.92953446  0.77187585  0.33031440    -0.39700
N262        N  0.00500526  0.83437855  0.40936328    -0.37300
N263        N  0.84700259  0.98653844  0.42258003    -0.38400
N264        N  0.77956927  0.92756417  0.34060039    -0.40000
C265        C  0.77152934  0.15813059  0.31948915    -0.04900
C266        C  0.81555240  0.15958202  0.32527796     0.09200
C267        C  0.83848847  0.18877590  0.30211742    -0.02300
C268        C  0.81794150  0.21656660  0.27354813    -0.00600
C269        C  0.77215435  0.21955265  0.27108638    -0.04200
C270        C  0.74993135  0.18768983  0.29401870     0.02800
C271        C  0.83819946  0.12993447  0.35521593     0.09700
C272        C  0.88426565  0.18977548  0.30752078     0.35500
C273        C  0.70413588  0.18589409  0.29546557     0.39000
C274        C  0.86066479  0.09612644  0.33856485    -0.04600
C275        C  0.88476537  0.07047437  0.36626621     0.02600
C276        C  0.88826730  0.07918111  0.41093823    -0.04200
C277        C  0.86579290  0.11310349  0.42732269    -0.00400
C278        C  0.83918352  0.13667578  0.40020569    -0.03000
C279        C  0.85878677  0.08774949  0.29272997     0.36300
C280        C  0.87336840  0.12725374  0.47095210     0.39900
C281        C  0.90588567  0.03497720  0.34864579     0.39000
C282        C  0.81250252  0.16754270  0.41943653     0.36000
C283        C  0.74803349  0.12622496  0.34105724     0.36700
C284        C  0.84612602  0.23816586  0.24512610     0.39900
N285        N  0.92235109  0.00645922  0.33449526    -0.38200
N286        N  0.85720035  0.08132655  0.25608403    -0.39800
N287        N  0.87938691  0.14091064  0.50487315    -0.37500
N288        N  0.79098913  0.19081879  0.43674825    -0.39900
N289        N  0.92067823  0.19050008  0.31188422    -0.39700
N290        N  0.87054598  0.25360976  0.22294644    -0.37300
N291        N  0.66793988  0.18203646  0.29898920    -0.38400
N292        N  0.72927325  0.10081684  0.35818924    -0.40000
C293        C  0.14135854  0.79572158  0.68859365    -0.04900
C294        C  0.16024429  0.82347705  0.66068140     0.09200
C295        C  0.20429432  0.82818960  0.66232123    -0.02300
C296        C  0.22995599  0.80318055  0.68936950    -0.00600
C297        C  0.21196840  0.77242720  0.71720630    -0.04200
C298        C  0.16594801  0.77305130  0.71864107     0.02800
C299        C  0.13298222  0.85105240  0.63301925     0.09700
C300        C  0.22338381  0.85896100  0.63513008     0.35500
C301        C  0.14147611  0.75652144  0.75362406     0.39000
C302        C  0.11699960  0.88765654  0.65039396    -0.04600
C303        C  0.09043447  0.91334856  0.62550959     0.02600
C304        C  0.07931102  0.90292884  0.58217187    -0.04200
C305        C  0.09606665  0.86606076  0.56482631    -0.00400
C306        C  0.12226797  0.84034345  0.59022812    -0.03000
C307        C  0.12829776  0.89898818  0.69429202     0.36300
C308        C  0.08825871  0.85485068  0.52018081     0.39900
C309        C  0.07523585  0.95069865  0.64526175     0.39000
C310        C  0.13840517  0.80272498  0.57199626     0.36000
C311        C  0.09540832  0.79230127  0.68782629     0.36700
C312        C  0.27509819  0.80956926  0.68562033     0.39900
N313        N  0.06373816  0.98053784  0.66142220    -0.38200
N314        N  0.13744510  0.90790304  0.72927211    -0.39800
N315        N  0.08241043  0.84572787  0.48456048    -0.37500
N316        N  0.15080008  0.77283969  0.55669849    -0.39900
N317        N  0.23847505  0.88352239  0.61350588    -0.39700
N318        N  0.31018618  0.81780302  0.67981091    -0.37300
N319        N  0.11986078  0.74517013  0.78091348    -0.38400
N320        N  0.05887371  0.78980981  0.68712775    -0.40000
C321        C  0.64635437  0.20320699  0.18010004    -0.04900
C322        C  0.66599452  0.17275742  0.15551519     0.09200
C323        C  0.70985410  0.16763722  0.15997197    -0.02300
C324        C  0.73454951  0.19444201  0.18631383    -0.00600
C325        C  0.71556671  0.22570598  0.21304985    -0.04200
C326        C  0.66965781  0.22704749  0.21071281     0.02800
C327        C  0.63979613  0.14442248  0.12686468     0.09700
C328        C  0.72991482  0.13467739  0.13636334     0.35500
C329        C  0.64363157  0.24814240  0.24171112     0.39000
C330        C  0.62817373  0.15568062  0.08458332    -0.04600
C331        C  0.60063332  0.13067416  0.05931608     0.02600
C332        C  0.58530775  0.09292278  0.07517912    -0.04200
C333        C  0.59814285  0.08132922  0.11743556    -0.00400
C334        C  0.62460063  0.10711633  0.14303427    -0.03000
C335        C  0.64381431  0.19371036  0.06723435     0.36300
C336        C  0.58073026  0.04533715  0.13739190     0.39900
C337        C  0.58731298  0.14496996  0.01731547     0.39000
C338        C  0.63449886  0.09634383  0.18727298     0.36000
C339        C  0.60096280  0.20896909  0.17476666     0.36700
C340        C  0.78001120  0.19078295  0.18196724     0.39900
N341        N  0.57690178  0.15787501  0.98430865    -0.38200
N342        N  0.65602026  0.22394010  0.05283332    -0.39800
N343        N  0.56750387  0.01781916  0.15611141    -0.37500
N344        N  0.64216017  0.08809089  0.22267049    -0.39900
N345        N  0.74584280  0.10821761  0.11782977    -0.39700
N346        N  0.81569647  0.18612020  0.17561983    -0.37300
N347        N  0.62064174  0.26308393  0.26586702    -0.38400
N348        N  0.56490299  0.21373347  0.17027540    -0.40000
C349        C  0.31255165  0.18256291  0.16168451    -0.04900
C350        C  0.33392081  0.15278276  0.18581155     0.09200
C351        C  0.32998722  0.15208096  0.23047474    -0.02300
C352        C  0.30789035  0.18337534  0.25174262    -0.00600
C353        C  0.28437925  0.21418685  0.22806645    -0.04200
C354        C  0.28543737  0.21075697  0.18183007     0.02800
C355        C  0.36132405  0.12268400  0.16339778     0.09700
C356        C  0.35066161  0.11983229  0.25490103     0.35500
C357        C  0.25793326  0.23275615  0.15271897     0.39000
C358        C  0.40573690  0.12570105  0.16708555    -0.04600
C359        C  0.43158333  0.10307145  0.13924492     0.02600
C360        C  0.41313245  0.07813206  0.10678512    -0.04200
C361        C  0.36854606  0.07472354  0.10391321    -0.00400
C362        C  0.34292215  0.09521983  0.13362541    -0.03000
C363        C  0.42507897  0.15361665  0.19801931     0.36300
C364        C  0.34830421  0.05365909  0.06822895     0.39900
C365        C  0.47691441  0.10964548  0.14122703     0.39000
C366        C  0.29720150  0.09032723  0.13176164     0.36000
C367        C  0.31872824  0.18420876  0.11530605     0.36700
C368        C  0.31366535  0.18470711  0.29818641     0.39900
N369        N  0.51276405  0.11642495  0.14358994    -0.38200
N370        N  0.44111553  0.17537505  0.22274959    -0.39800
N371        N  0.33075947  0.03891382  0.03925580    -0.37500
N372        N  0.26077328  0.08680501  0.13017476    -0.39900
N373        N  0.36740463  0.09446854  0.27442296    -0.39700
N374        N  0.32064767  0.18397353  0.33483081    -0.37300
N375        N  0.23661103  0.24794326  0.12693478    -0.38400
N376        N  0.32352637  0.18532572  0.07845399    -0.40000
C377        C  0.34709757  0.89277427  0.10937154    -0.04900
C378        C  0.36412243  0.86061505  0.13418751     0.09200
C379        C  0.40685080  0.84930123  0.12858549    -0.02300
C380        C  0.43276345  0.87135629  0.10032898    -0.00600
C381        C  0.41626531  0.90501224  0.07740023    -0.04200
C382        C  0.37270286  0.91358700  0.07970728     0.02800
C383        C  0.33587942  0.83677114  0.16338814     0.09700
C384        C  0.42488140  0.81491942  0.15131562     0.35500
C385        C  0.35324683  0.93871171  0.04696219     0.39000
C386        C  0.31052465  0.80539281  0.14645467    -0.04600
C387        C  0.28076333  0.78519156  0.17253349     0.02600
C388        C  0.28130298  0.79021406  0.21891970    -0.04200
C389        C  0.30584568  0.82462256  0.23461523    -0.00400
C390        C  0.33152866  0.84795197  0.20671529    -0.03000
C391        C  0.31349533  0.79547170  0.10087129     0.36300
C392        C  0.30806468  0.83553440  0.27984488     0.39900
C393        C  0.24640711  0.76579881  0.14877504     0.39000
C394        C  0.35447632  0.88346381  0.22272572     0.36000
C395        C  0.30312072  0.90429866  0.11432991     0.36700
C396        C  0.47618095  0.85829683  0.09397234     0.39900
N397        N  0.21907283  0.75210989  0.12819968    -0.38200
N398        N  0.31590101  0.78771119  0.06459562    -0.39800
N399        N  0.31182400  0.84626925  0.31522499    -0.37500
N400        N  0.37257158  0.91199005  0.23512869    -0.39900
N401        N  0.44173899  0.78787448  0.16798336    -0.39700
N402        N  0.51042634  0.84715583  0.08837972    -0.37300
N403        N  0.33735351  0.95651033  0.01914411    -0.38400
N404        N  0.26811844  0.91358417  0.11878007    -0.40000
C405        C  0.62907723  0.90165600  0.82367228    -0.04900
C406        C  0.64150346  0.86646234  0.84669203     0.09200
C407        C  0.62468078  0.85904597  0.88763025    -0.02300
C408        C  0.59560899  0.88647955  0.90560573    -0.00600
C409        C  0.58479040  0.92304289  0.88374293    -0.04200
C410        C  0.60202736  0.93063633  0.84280098     0.02800
C411        C  0.67076969  0.83578743  0.82739638     0.09700
C412        C  0.63671324  0.82246822  0.91092581     0.35500
C413        C  0.59320327  0.96871843  0.82086499     0.39000
C414        C  0.71293258  0.83284601  0.84169763    -0.04600
C415        C  0.74135648  0.80570245  0.82112581     0.02600
C416        C  0.72743722  0.78015232  0.78560469    -0.04200
C417        C  0.68184505  0.77617522  0.78193882    -0.00400
C418        C  0.65487143  0.80633041  0.79889018    -0.03000
C419        C  0.72775576  0.86014946  0.87573699     0.36300
C420        C  0.66032105  0.73948105  0.76716125     0.39900
C421        C  0.78475042  0.80727109  0.83646638     0.39000
C422        C  0.60971565  0.80556381  0.78912467     0.36000
C423        C  0.64285403  0.90760994  0.77982098     0.36700
C424        C  0.57562405  0.87570750  0.94588901     0.39900
N425        N  0.81817259  0.81036717  0.85177464    -0.38200
N426        N  0.73937845  0.88183606  0.90292882    -0.39800
N427        N  0.64126047  0.71088215  0.75657549    -0.37500
N428        N  0.57379556  0.80489085  0.78147837    -0.39900
N429        N  0.64662334  0.79344611  0.92949383    -0.39700
N430        N  0.55973048  0.86679758  0.97788136    -0.37300
N431        N  0.58644327  0.99923384  0.80354765    -0.38400
N432        N  0.65270407  0.91269838  0.74449008    -0.40000
C433        C  0.33462144  0.20753726  0.82271445    -0.04900
C434        C  0.33241951  0.16712024  0.80775900     0.09200
C435        C  0.30130177  0.15637594  0.77740807    -0.02300
C436        C  0.27205172  0.18568512  0.76227809    -0.00600
C437        C  0.27821651  0.22881503  0.77059962    -0.04200
C438        C  0.30852103  0.23822867  0.80439768     0.02800
C439        C  0.35865036  0.13460439  0.82878919     0.09700
C440        C  0.29740253  0.11385467  0.76420367     0.35500
C441        C  0.31582070  0.27934781  0.82009135     0.39000
C442        C  0.34148159  0.11196901  0.86286928    -0.04600
C443        C  0.36677817  0.08363035  0.88524658     0.02600
C444        C  0.41017498  0.07924823  0.87527511    -0.04200
C445        C  0.42545558  0.09757722  0.83732831    -0.00400
C446        C  0.39994967  0.12573886  0.81461201    -0.03000
C447        C  0.29779917  0.11829629  0.87523242     0.36300
C448        C  0.46715623  0.08763854  0.82128173     0.39900
C449        C  0.34742235  0.05732053  0.91684087     0.39000
C450        C  0.41662380  0.14563841  0.77691975     0.36000
C451        C  0.36490368  0.21768528  0.85670985     0.36700
C452        C  0.23220192  0.16862919  0.74721808     0.39900
N453        N  0.33161278  0.03577962  0.94128017    -0.38200
N454        N  0.26292451  0.12339253  0.88486195    -0.39800
N455        N  0.50024173  0.07952863  0.80812657    -0.37500
N456        N  0.43112653  0.16062422  0.74685408    -0.39900
N457        N  0.29427227  0.07996174  0.75398872    -0.39700
N458        N  0.20029162  0.15347590  0.73786459    -0.37300
N459        N  0.32424982  0.31069816  0.83523809    -0.38400
N460        N  0.38899039  0.22574311  0.88378055    -0.40000
C461        C  0.64501640  0.88190987  0.11398774    -0.04900
C462        C  0.62963478  0.86441360  0.15212213     0.09200
C463        C  0.59037738  0.87717971  0.16842983    -0.02300
C464        C  0.56624498  0.90687272  0.14658860    -0.00600
C465        C  0.58030302  0.92290565  0.10675132    -0.04200
C466        C  0.62041358  0.91065463  0.09114109     0.02800
C467        C  0.65646427  0.83553647  0.17779917     0.09700
C468        C  0.57475925  0.85951521  0.20796237     0.35500
C469        C  0.63738892  0.92825649  0.05217850     0.39000
C470        C  0.68627227  0.85127574  0.20700621    -0.04600
C471        C  0.70937089  0.82502725  0.23430978     0.02600
C472        C  0.70874514  0.78121632  0.22810689    -0.04200
C473        C  0.67369773  0.76637053  0.20218669    -0.00400
C474        C  0.64842298  0.79340708  0.17724804    -0.03000
C475        C  0.69050578  0.89535493  0.21147358     0.36300
C476        C  0.66253807  0.72358034  0.19947566     0.39900
C477        C  0.72524828  0.84432604  0.27327989     0.39000
C478        C  0.61434716  0.77783393  0.14996066     0.36000
C479        C  0.68656304  0.87090600  0.09836235     0.36700
C480        C  0.52642905  0.91974148  0.16516957     0.39900
N481        N  0.73569150  0.86041795  0.30484735    -0.38200
N482        N  0.69349319  0.93040026  0.21517693    -0.39800
N483        N  0.65035047  0.69040196  0.19594888    -0.37500
N484        N  0.58707857  0.76556174  0.12832095    -0.39900
N485        N  0.56222944  0.84518900  0.23930169    -0.39700
N486        N  0.49482742  0.93002131  0.18025136    -0.37300
N487        N  0.65104895  0.94208573  0.02107931    -0.38400
N488        N  0.71972143  0.86307260  0.08524955    -0.40000
C489        C  0.36385445  0.89691916  0.83611164    -0.04900
C490        C  0.35491152  0.85695700  0.85011550     0.09200
C491        C  0.37445398  0.84284418  0.88827834    -0.02300
C492        C  0.40259638  0.86823431  0.91219598    -0.00600
C493        C  0.41330094  0.90790378  0.89735138    -0.04200
C494        C  0.39323295  0.92194292  0.85893822     0.02800
C495        C  0.32674704  0.82898058  0.82327061     0.09700
C496        C  0.36611732  0.80163724  0.90272826     0.35500
C497        C  0.40390909  0.96137319  0.84111323     0.39000
C498        C  0.34474612  0.79938172  0.79643739    -0.04600
C499        C  0.31915599  0.77429599  0.76924550     0.02600
C500        C  0.27333486  0.77437981  0.77174016    -0.04200
C501        C  0.25617743  0.80732446  0.79740361    -0.00400
C502        C  0.28258579  0.83350541  0.82281208    -0.03000
C503        C  0.39066517  0.79606065  0.79545368     0.36300
C504        C  0.21105575  0.81385704  0.80134139     0.39900
C505        C  0.34190452  0.75481708  0.73467843     0.39000
C506        C  0.26407864  0.86424832  0.85070181     0.36000
C507        C  0.34330519  0.91203065  0.79737157     0.36700
C508        C  0.41968431  0.85320082  0.95261908     0.39900
N509        N  0.36117581  0.74168624  0.70640396    -0.38200
N510        N  0.42716827  0.79342302  0.79479858    -0.39800
N511        N  0.17581329  0.82158275  0.80688188    -0.37500
N512        N  0.24945906  0.88861949  0.87313912    -0.39900
N513        N  0.36008279  0.76867972  0.91433759    -0.39700
N514        N  0.43294167  0.84077292  0.98483608    -0.37300
N515        N  0.41224565  0.99256342  0.82613717    -0.38400
N516        N  0.32662780  0.92412949  0.76666039    -0.40000
C517        C  0.91047057  0.14208861  0.64458247    -0.04900
C518        C  0.86577099  0.13969171  0.64276068     0.09200
C519        C  0.84648841  0.11132081  0.61427754    -0.02300
C520        C  0.87127098  0.08813297  0.58559101    -0.00600
C521        C  0.91596129  0.09165489  0.58627863    -0.04200
C522        C  0.93529838  0.11667790  0.61796362     0.02800
C523        C  0.83859002  0.16628528  0.67104454     0.09700
C524        C  0.80085630  0.10607046  0.61450757     0.35500
C525        C  0.98010682  0.11310648  0.62692936     0.39000
C526        C  0.81188768  0.19576275  0.65266163    -0.04600
C527        C  0.78259176  0.21772597  0.67810701     0.02600
C528        C  0.78435962  0.21636835  0.72466102    -0.04200
C529        C  0.81215413  0.18541086  0.74229242    -0.00400
C530        C  0.83718616  0.16004975  0.71560006    -0.03000
C531        C  0.81393532  0.20285213  0.60651056     0.36300
C532        C  0.81873944  0.18026072  0.78815412     0.39900
C533        C  0.74870515  0.23646139  0.65370046     0.39000
C534        C  0.86269158  0.12764759  0.73433781     0.36000
C535        C  0.93126497  0.17054189  0.67385504     0.36700
C536        C  0.85025936  0.06122941  0.55488292     0.39900
N537        N  0.72216535  0.24922427  0.63168471    -0.38200
N538        N  0.81539218  0.20836062  0.56979880    -0.39800
N539        N  0.82680221  0.17367835  0.82385659    -0.37500
N540        N  0.88315881  0.10201985  0.74928505    -0.39900
N541        N  0.76445963  0.10220527  0.61485739    -0.39700
N542        N  0.83248790  0.04036242  0.53052371    -0.37300
N543        N  0.01521292  0.10979969  0.63712324    -0.38400
N544        N  0.94861505  0.19289254  0.69703354    -0.40000
C545        C  0.70584316  0.18722794  0.85635986    -0.04900
C546        C  0.67726228  0.16081685  0.83521178     0.09200
C547        C  0.67927158  0.15721919  0.79040257    -0.02300
C548        C  0.70553912  0.18341983  0.76608470    -0.00600
C549        C  0.73308546  0.21360364  0.78630721    -0.04200
C550        C  0.73480245  0.21173236  0.83290204     0.02800
C551        C  0.64491984  0.13668656  0.86022441     0.09700
C552        C  0.65332863  0.12626436  0.76907199     0.35500
C553        C  0.76757431  0.23095330  0.85886569     0.39000
C554        C  0.60173037  0.14782959  0.85896925    -0.04600
C555        C  0.57203550  0.12788848  0.88523079     0.02600
C556        C  0.58414876  0.09377574  0.91059537    -0.04200
C557        C  0.62715991  0.08134486  0.91011473    -0.00400
C558        C  0.65726521  0.10287481  0.88543694    -0.03000
C559        C  0.58671469  0.17847556  0.82900059     0.36300
C560        C  0.64106435  0.04708152  0.93594824     0.39900
C561        C  0.52896157  0.14331140  0.88581072     0.39000
C562        C  0.70096885  0.08948788  0.88494473     0.36000
C563        C  0.70568770  0.18865942  0.90315861     0.36700
C564        C  0.70077522  0.17937957  0.71984805     0.39900
N565        N  0.49497317  0.15641515  0.88651601    -0.38200
N566        N  0.57282098  0.20164297  0.80471403    -0.39800
N567        N  0.65215321  0.01968970  0.95649058    -0.37500
N568        N  0.73585520  0.07882136  0.88446412    -0.39900
N569        N  0.63276686  0.10154157  0.75221083    -0.39700
N570        N  0.69420769  0.17308507  0.68370080    -0.37300
N571        N  0.79338164  0.24399312  0.88186832    -0.38400
N572        N  0.70568015  0.18936852  0.94040488    -0.40000
C573        C  0.13510657  0.38828240  0.15473834    -0.04900
C574        C  0.14994938  0.35008195  0.14047221     0.09200
C575        C  0.13653722  0.33436070  0.10033775    -0.02300
C576        C  0.10899313  0.35719108  0.07400821    -0.00600
C577        C  0.09331781  0.39534508  0.08851023    -0.04200
C578        C  0.10625028  0.41043454  0.12922710     0.02800
C579        C  0.17758805  0.32536288  0.16935620     0.09700
C580        C  0.15038489  0.29433084  0.08628498     0.35500
C581        C  0.08788832  0.44731331  0.14639972     0.39000
C582        C  0.15908773  0.30005461  0.19983454    -0.04600
C583        C  0.18443203  0.27993141  0.23055953     0.02600
C584        C  0.23002464  0.27796897  0.22627970    -0.04200
C585        C  0.24773317  0.30777149  0.19749299    -0.00400
C586        C  0.22151356  0.33083308  0.16952611    -0.03000
C587        C  0.11314708  0.29694152  0.20131962     0.36300
C588        C  0.29275681  0.31531233  0.19437163     0.39900
C589        C  0.16238713  0.26911214  0.26959331     0.39000
C590        C  0.23975051  0.35970651  0.13959136     0.36000
C591        C  0.14897329  0.40431488  0.19622173     0.36700
C592        C  0.09798790  0.34158668  0.03148877     0.39900
N593        N  0.14403104  0.26218200  0.30071452    -0.38200
N594        N  0.07663696  0.29457076  0.20255641    -0.39800
N595        N  0.32784526  0.32427495  0.18979577    -0.37500
N596        N  0.25404633  0.38271662  0.11565512    -0.39900
N597        N  0.16054870  0.26233932  0.07438222    -0.39700
N598        N  0.08960688  0.32897202  0.99758074    -0.37300
N599        N  0.07291379  0.47629045  0.16097364    -0.38400
N600        N  0.16018655  0.41704581  0.22925171    -0.40000
C601        C  0.16008573  0.70109220  0.19425682    -0.04900
C602        C  0.18145620  0.66832677  0.17484247     0.09200
C603        C  0.22496522  0.66409996  0.18240602    -0.02300
C604        C  0.24810659  0.69486778  0.20456110    -0.00600
C605        C  0.22729555  0.72871270  0.22583062    -0.04200
C606        C  0.18157703  0.72840239  0.22262900     0.02800
C607        C  0.15771298  0.63715414  0.14790468     0.09700
C608        C  0.24617370  0.62756440  0.16696278     0.35500
C609        C  0.15428466  0.75163471  0.25069578     0.39000
C610        C  0.16488381  0.63337018  0.10323251    -0.04600
C611        C  0.14201739  0.60444458  0.07812048     0.02600
C612        C  0.10971826  0.58038848  0.09684088    -0.04200
C613        C  0.10143732  0.58595713  0.14147552    -0.00400
C614        C  0.12720470  0.61189873  0.16706821    -0.03000
C615        C  0.19530745  0.65987271  0.08264373     0.36300
C616        C  0.06472791  0.56771724  0.16134115     0.39900
C617        C  0.14996644  0.60212544  0.03229186     0.39000
C618        C  0.12230471  0.61273164  0.21349647     0.36000
C619        C  0.11502037  0.70612940  0.18574784     0.36700
C620        C  0.29372526  0.69131702  0.20201630     0.39900
N621        N  0.15677778  0.60085738  0.99579988    -0.38200
N622        N  0.21956394  0.68061970  0.06569808    -0.39800
N623        N  0.03494898  0.55469595  0.17775458    -0.37500
N624        N  0.11876247  0.61345203  0.25052567    -0.39900
N625        N  0.26290240  0.59834358  0.15486692    -0.39700
N626        N  0.32953624  0.68560591  0.19754140    -0.37300
N627        N  0.13050529  0.76814259  0.27287509    -0.38400
N628        N  0.07914700  0.71002022  0.17911377    -0.40000
C629        C  0.82637108  0.67235355  0.20723039    -0.04900
C630        C  0.81847579  0.67146750  0.16280070     0.09200
C631        C  0.78998384  0.69937402  0.14479256    -0.02300
C632        C  0.76753814  0.72719787  0.17116930    -0.00600
C633        C  0.77137994  0.72612343  0.21762063    -0.04200
C634        C  0.80439902  0.69972158  0.23427783     0.02800
C635        C  0.84380996  0.64370723  0.13460272     0.09700
C636        C  0.78467228  0.69997903  0.09820462     0.35500
C637        C  0.81519706  0.69731444  0.27968318     0.39000
C638        C  0.82560602  0.60854062  0.11536057    -0.04600
C639        C  0.85059204  0.58205769  0.09029925     0.02600
C640        C  0.89459884  0.58898995  0.08681911    -0.04200
C641        C  0.91262773  0.62455639  0.10597830    -0.00400
C642        C  0.88695120  0.65239396  0.12823259    -0.03000
C643        C  0.78132163  0.59893089  0.12140569     0.36300
C644        C  0.95727298  0.63410079  0.10109946     0.39900
C645        C  0.83110650  0.54672135  0.06973504     0.39000
C646        C  0.90474039  0.69065166  0.14394285     0.36000
C647        C  0.85635780  0.64332342  0.22547107     0.36700
C648        C  0.74505773  0.75855739  0.14785065     0.39900
N649        N  0.81547172  0.51855869  0.05345129    -0.38200
N650        N  0.74615441  0.58987648  0.12512150    -0.39800
N651        N  0.99276998  0.64180779  0.09710909    -0.37500
N652        N  0.91879875  0.72128509  0.15613354    -0.39900
N653        N  0.78045338  0.70039764  0.06116323    -0.39700
N654        N  0.72914826  0.78312805  0.12660073    -0.37300
N655        N  0.82651979  0.69331026  0.31495847    -0.38400
N656        N  0.88012170  0.62013374  0.23984725    -0.40000
C657        C  0.14196960  0.59752430  0.86710241    -0.04900
C658        C  0.13169076  0.63869303  0.85945589     0.09200
C659        C  0.09742021  0.65614032  0.88193581    -0.02300
C660        C  0.07423720  0.63296370  0.91217744    -0.00600
C661        C  0.08499046  0.59169452  0.92078056    -0.04200
C662        C  0.11942918  0.57441661  0.89771978     0.02800
C663        C  0.15984331  0.66452516  0.83111007     0.09700
C664        C  0.08660089  0.69855876  0.87474634     0.35500
C665        C  0.13510464  0.53399210  0.90737090     0.39000
C666        C  0.16079463  0.65877633  0.78629762    -0.04600
C667        C  0.18768335  0.68276177  0.75998660     0.02600
C668        C  0.21500718  0.71430877  0.77783242    -0.04200
C669        C  0.21640736  0.71587333  0.82453890    -0.00400
C670        C  0.18800979  0.69270975  0.84991547    -0.03000
C671        C  0.13236444  0.62882845  0.76686026     0.36300
C672        C  0.24904324  0.73672343  0.84925590     0.39900
C673        C  0.18287172  0.67650117  0.71395422     0.39000
C674        C  0.18880594  0.69661162  0.89664273     0.36000
C675        C  0.17720707  0.57919100  0.84441478     0.36700
C676        C  0.03962671  0.65231524  0.93467398     0.39900
N677        N  0.17636631  0.66973878  0.67788767    -0.38200
N678        N  0.10986083  0.60486480  0.75141098    -0.39800
N679        N  0.27451328  0.75155338  0.87138542    -0.37500
N680        N  0.18916276  0.69966215  0.93377165    -0.39900
N681        N  0.07803439  0.73250475  0.86956804    -0.39700
N682        N  0.01241925  0.66846569  0.95261688    -0.37300
N683        N  0.15016715  0.50241473  0.91354584    -0.38400
N684        N  0.20504292  0.56450764  0.82606846    -0.40000
C685        C  0.80356195  0.68120677  0.84337045    -0.04900
C686        C  0.84751893  0.68609450  0.84110637     0.09200
C687        C  0.86420892  0.71651456  0.81492957    -0.02300
C688        C  0.83729558  0.74131416  0.78955928    -0.00600
C689        C  0.79212280  0.73344774  0.78630461    -0.04200
C690        C  0.77603024  0.70488251  0.81732576     0.02800
C691        C  0.87632857  0.66148203  0.86942842     0.09700
C692        C  0.90966868  0.72386475  0.81631074     0.35500
C693        C  0.73133017  0.69676874  0.82237197     0.39000
C694        C  0.90038855  0.62926396  0.85216804    -0.04600
C695        C  0.92587161  0.60494789  0.87939733     0.02600
C696        C  0.92784427  0.61292469  0.92438168    -0.04200
C697        C  0.90621090  0.64762327  0.94072314    -0.00400
C698        C  0.88017655  0.67124800  0.91346591    -0.03000
C699        C  0.89890978  0.62122533  0.80620912     0.36300
C700        C  0.90995479  0.65971693  0.98549009     0.39900
C701        C  0.95055189  0.57217675  0.86063294     0.39000
C702        C  0.85684005  0.70568159  0.93079916     0.36000
C703        C  0.78663121  0.65046943  0.87210655     0.36700
C704        C  0.85721785  0.77805919  0.77358682     0.39900
N705        N  0.97008434  0.54594261  0.84565275    -0.38200
N706        N  0.89810041  0.61513983  0.76949101    -0.39800
N707        N  0.91266501  0.67106496  0.02070000    -0.37500
N708        N  0.83802737  0.73297087  0.94458987    -0.39900
N709        N  0.94579070  0.72968523  0.81766184    -0.39700
N710        N  0.87430176  0.80733976  0.76246718    -0.37300
N711        N  0.69691942  0.68726987  0.82981053    -0.38400
N712        N  0.77321128  0.62603064  0.89498729    -0.40000
C713        C  0.17263102  0.37151473  0.91664407    -0.04900
C714        C  0.15575957  0.36305506  0.87531402     0.09200
C715        C  0.11756086  0.38175483  0.86210058    -0.02300
C716        C  0.09571434  0.40780583  0.89047105    -0.00600
C717        C  0.11233468  0.41598791  0.93203491    -0.04200
C718        C  0.15130221  0.39813269  0.94478714     0.02800
C719        C  0.18082532  0.33785625  0.84432051     0.09700
C720        C  0.10152467  0.37576828  0.81865522     0.35500
C721        C  0.16963578  0.40682559  0.98692401     0.39000
C722        C  0.18154977  0.29516980  0.84702104    -0.04600
C723        C  0.20562268  0.27157889  0.81760249     0.02600
C724        C  0.23043042  0.29065956  0.78441489    -0.04200
C725        C  0.23556991  0.33443238  0.78979090    -0.00400
C726        C  0.20779743  0.35733191  0.81565542    -0.03000
C727        C  0.15595603  0.27546046  0.87948741     0.36300
C728        C  0.27277894  0.35693459  0.77655685     0.39900
C729        C  0.20316508  0.22778674  0.82281562     0.39000
C730        C  0.20873150  0.40175266  0.81476664     0.36000
C731        C  0.21274383  0.35363818  0.92970435     0.36700
C732        C  0.05740213  0.42809799  0.87581541     0.39900
N733        N  0.19985219  0.19342276  0.83046660    -0.38200
N734        N  0.13560411  0.25988784  0.90542965    -0.39800
N735        N  0.30212101  0.37628718  0.76787746    -0.37500
N736        N  0.20920210  0.43705212  0.81409486    -0.39900
N737        N  0.08826569  0.37205081  0.78398868    -0.39700
N738        N  0.02698011  0.44447020  0.86416143    -0.37300
N739        N  0.18449233  0.41387816  0.02037849    -0.38400
N740        N  0.24474059  0.33938460  0.94001064    -0.40000
C741        C  0.85412863  0.41373584  0.14931808    -0.04900
C742        C  0.85820705  0.37077696  0.14813381     0.09200
C743        C  0.89064572  0.35346980  0.12310555    -0.02300
C744        C  0.91617789  0.37835928  0.09683120    -0.00600
C745        C  0.91101818  0.42133672  0.09655256    -0.04200
C746        C  0.88211026  0.43877533  0.12572077     0.02800
C747        C  0.82813503  0.34328523  0.17228180     0.09700
C748        C  0.89738605  0.30965773  0.12407255     0.35500
C749        C  0.88495565  0.48168737  0.13616476     0.39000
C750        C  0.79918593  0.31871224  0.14952235    -0.04600
C751        C  0.77267414  0.29038816  0.17094425     0.02600
C752        C  0.77465362  0.28501886  0.21737618    -0.04200
C753        C  0.80203625  0.31396160  0.23970025    -0.00400
C754        C  0.82916175  0.34107015  0.21729236    -0.03000
C755        C  0.79588917  0.32384182  0.10305519     0.36300
C756        C  0.80586192  0.31558280  0.28617614     0.39900
C757        C  0.74089800  0.27169334  0.14323544     0.39000
C758        C  0.86007665  0.36578208  0.24076349     0.36000
C759        C  0.82053764  0.43221674  0.17409044     0.36700
C760        C  0.94823429  0.35905261  0.07090118     0.39900
N761        N  0.71586709  0.25879284  0.11931639    -0.38200
N762        N  0.79339680  0.32808661  0.06616394    -0.39800
N763        N  0.81202831  0.31987872  0.32270293    -0.37500
N764        N  0.88479818  0.38531428  0.25939395    -0.39900
N765        N  0.90254150  0.27472044  0.12486815    -0.39700
N766        N  0.97353545  0.34178663  0.05136783    -0.37300
N767        N  0.88813265  0.51525160  0.14738459    -0.38400
N768        N  0.79346685  0.44686392  0.19361081    -0.40000
C769        C  0.80333564  0.32692735  0.84161942    -0.04900
C770        C  0.84738897  0.32477107  0.83693812     0.09200
C771        C  0.86357695  0.30125948  0.80316822    -0.02300
C772        C  0.83639507  0.27767030  0.77596409    -0.00600
C773        C  0.79086370  0.27565969  0.78278998    -0.04200
C774        C  0.77550667  0.30547417  0.81324514     0.02800
C775        C  0.87638453  0.35081790  0.86490360     0.09700
C776        C  0.90886782  0.30312978  0.79503397     0.35500
C777        C  0.73123377  0.31563359  0.81734806     0.39000
C778        C  0.90582973  0.33305541  0.89380625    -0.04600
C779        C  0.93262104  0.35793619  0.91989154     0.02600
C780        C  0.92762580  0.40093944  0.92054589    -0.04200
C781        C  0.89783331  0.41850405  0.89118297    -0.00400
C782        C  0.87431181  0.39371054  0.86227888    -0.03000
C783        C  0.90857457  0.28899007  0.89669023     0.36300
C784        C  0.88947632  0.46207001  0.89105738     0.39900
C785        C  0.96689727  0.33905325  0.94377304     0.39000
C786        C  0.84785024  0.41252161  0.82940398     0.36000
C787        C  0.78643847  0.35040001  0.87740709     0.36700
C788        C  0.85703533  0.26182511  0.73793433     0.39900
N789        N  0.99473678  0.32346215  0.96167598    -0.38200
N790        N  0.91074747  0.25380991  0.89877514    -0.39800
N791        N  0.88214232  0.49665962  0.89071347    -0.37500
N792        N  0.82686465  0.42749336  0.80315287    -0.39900
N793        N  0.94483198  0.30463542  0.78853982    -0.39700
N794        N  0.87538230  0.25134929  0.70780537    -0.37300
N795        N  0.69738394  0.32777054  0.82311132    -0.38400
N796        N  0.77319044  0.36891121  0.90606864    -0.40000
C797        C  0.62271813  0.62875000  0.65721713    -0.04900
C798        C  0.65080620  0.65626823  0.63716614     0.09200
C799        C  0.64803676  0.66188056  0.59217834    -0.02300
C800        C  0.61657261  0.64151231  0.56784968    -0.00600
C801        C  0.59033154  0.61208786  0.58742111    -0.04200
C802        C  0.59305752  0.60633367  0.63233220     0.02800
C803        C  0.68156625  0.68117866  0.66365548     0.09700
C804        C  0.67756452  0.68882449  0.57079070     0.35500
C805        C  0.56259346  0.58038724  0.65353206     0.39000
C806        C  0.71429801  0.66229204  0.68689820    -0.04600
C807        C  0.74018625  0.68492172  0.71606178     0.02600
C808        C  0.73553696  0.72872854  0.72055760    -0.04200
C809        C  0.70628050  0.74748250  0.69036475    -0.00400
C810        C  0.67774783  0.72375190  0.66541104    -0.03000
C811        C  0.72136393  0.61880682  0.68035050     0.36300
C812        C  0.70026337  0.79134793  0.68776756     0.39900
C813        C  0.77229346  0.66110677  0.73803100     0.39000
C814        C  0.64197382  0.74320700  0.64387315     0.36000
C815        C  0.62381386  0.62375790  0.70357716     0.36700
C816        C  0.61042765  0.65226789  0.52299097     0.39900
N817        N  0.79746490  0.63997435  0.75354051    -0.38200
N818        N  0.72692016  0.58424469  0.67513113    -0.39800
N819        N  0.69277760  0.82570638  0.68393406    -0.37500
N820        N  0.61344300  0.75865365  0.62694984    -0.39900
N821        N  0.70087356  0.71055682  0.55382650    -0.39700
N822        N  0.60508092  0.66207672  0.48763330    -0.37300
N823        N  0.53755152  0.56070400  0.67067290    -0.38400
N824        N  0.62470859  0.61923585  0.74048705    -0.40000
C825        C  0.34947252  0.37815570  0.59671551    -0.04900
C826        C  0.35537296  0.37969910  0.64167044     0.09200
C827        C  0.38502619  0.40755575  0.65969434    -0.02300
C828        C  0.41023201  0.43199190  0.63264180    -0.00600
C829        C  0.40411000  0.43055626  0.58753630    -0.04200
C830        C  0.37122098  0.40539144  0.57019565     0.02800
C831        C  0.33024244  0.35136223  0.66935766     0.09700
C832        C  0.38959330  0.41112361  0.70603421     0.35500
C833        C  0.35803862  0.40775013  0.52533235     0.39000
C834        C  0.35033757  0.31884057  0.69020098    -0.04600
C835        C  0.32670517  0.28961809  0.71327729     0.02600
C836        C  0.28125411  0.29312394  0.71764931    -0.04200
C837        C  0.26155901  0.32498701  0.69245753    -0.00400
C838        C  0.28592160  0.35413773  0.67022063    -0.03000
C839        C  0.39594403  0.31417512  0.68566367     0.36300
C840        C  0.21608291  0.33116965  0.69133924     0.39900
C841        C  0.35070097  0.25415405  0.72616831     0.39000
C842        C  0.26518813  0.38793696  0.64834386     0.36000
C843        C  0.32124128  0.34791028  0.57742615     0.36700
C844        C  0.44063495  0.46029758  0.65140041     0.39900
N845        N  0.37176516  0.22627944  0.73392844    -0.38200
N846        N  0.43213681  0.31035549  0.68204965    -0.39800
N847        N  0.18034967  0.33856646  0.68883351    -0.37500
N848        N  0.24878923  0.41458604  0.63049587    -0.39900
N849        N  0.39347438  0.41414581  0.74299281    -0.39700
N850        N  0.46467418  0.48314979  0.66630138    -0.37300
N851        N  0.34642731  0.41004158  0.48996262    -0.38400
N852        N  0.29869397  0.32390514  0.56211413    -0.40000
C853        C  0.60364109  0.35001403  0.37493447    -0.04900
C854        C  0.64256439  0.36393753  0.35890208     0.09200
C855        C  0.65825056  0.40222353  0.37264582    -0.02300
C856        C  0.63544013  0.42627541  0.40248892    -0.00600
C857        C  0.59708287  0.41174170  0.42031643    -0.04200
C858        C  0.58121365  0.37339538  0.40551948     0.02800
C859        C  0.66867199  0.33676888  0.33018303     0.09700
C860        C  0.69874346  0.41633104  0.35686434     0.35500
C861        C  0.54280390  0.35622846  0.42291846     0.39000
C862        C  0.67116066  0.34375395  0.28585127    -0.04600
C863        C  0.69545717  0.31773712  0.25889050     0.02600
C864        C  0.71910054  0.28338485  0.27589914    -0.04200
C865        C  0.71950624  0.28085362  0.32250401    -0.00400
C866        C  0.69235988  0.30501476  0.34816567    -0.03000
C867        C  0.64667165  0.37709932  0.26762021     0.36300
C868        C  0.75166842  0.25956311  0.34689579     0.39900
C869        C  0.69238606  0.32617616  0.21323942     0.39000
C870        C  0.69011266  0.29842372  0.39440508     0.36000
C871        C  0.58722617  0.31066553  0.36096733     0.36700
C872        C  0.65151047  0.46635015  0.41373035     0.39900
N873        N  0.68734362  0.33553099  0.17769767    -0.38200
N874        N  0.62705605  0.40360449  0.25320097    -0.39800
N875        N  0.77786763  0.24488253  0.36790376    -0.37500
N876        N  0.68804107  0.29317931  0.43111870    -0.39900
N877        N  0.73111596  0.42736257  0.34430436    -0.39700
N878        N  0.66509147  0.49827373  0.42192634    -0.37300
N879        N  0.51257106  0.34140915  0.43648873    -0.38400
N880        N  0.57391135  0.27922733  0.35034823    -0.40000
C881        C  0.38023250  0.67525352  0.40944775    -0.04900
C882        C  0.36213974  0.66106594  0.37050615     0.09200
C883        C  0.37225867  0.62188211  0.35522665    -0.02300
C884        C  0.39940559  0.59631181  0.37914910    -0.00600
C885        C  0.41820557  0.61014711  0.41872250    -0.04200
C886        C  0.40794503  0.65010030  0.43357758     0.02800
C887        C  0.33507901  0.68829542  0.34305427     0.09700
C888        C  0.35530445  0.60825051  0.31386342     0.35500
C889        C  0.42473530  0.66564835  0.47412398     0.39000
C890        C  0.35450975  0.71569202  0.31524963    -0.04600
C891        C  0.33060490  0.73683849  0.28380958     0.02600
C892        C  0.28486179  0.73506860  0.28253890    -0.04200
C893        C  0.26619137  0.70515295  0.31080016    -0.00400
C894        C  0.29114987  0.68267004  0.34052645    -0.03000
C895        C  0.40034782  0.72040102  0.31771533     0.36300
C896        C  0.22087636  0.69808523  0.31219929     0.39900
C897        C  0.35577160  0.75423342  0.25019037     0.39000
C898        C  0.27140877  0.65433190  0.37002277     0.36000
C899        C  0.37083098  0.71624291  0.42434376     0.36700
C900        C  0.40667760  0.55552370  0.36232725     0.39900
N901        N  0.37797156  0.76607876  0.22378565    -0.38200
N902        N  0.43674328  0.72409569  0.31983583    -0.39800
N903        N  0.18518797  0.69074646  0.31513533    -0.37500
N904        N  0.25570259  0.63196892  0.39371469    -0.39900
N905        N  0.34191487  0.59765429  0.28081680    -0.39700
N906        N  0.41163614  0.52301547  0.34858213    -0.37300
N907        N  0.43784542  0.67821852  0.50652607    -0.38400
N908        N  0.36379900  0.74901241  0.43629572    -0.40000
C909        C  0.60813330  0.62021622  0.35163145    -0.04900
C910        C  0.64915591  0.63374368  0.36287559     0.10800
C911        C  0.66864219  0.61980424  0.40099809    -0.02300
C912        C  0.64598888  0.59489782  0.42953452    -0.00600
C913        C  0.60343428  0.58359117  0.41988117    -0.04200
C914        C  0.58542981  0.59502396  0.37979288     0.02800
C915        C  0.67159487  0.66293058  0.33422791     0.09700
C916        C  0.71189891  0.63151854  0.41127265     0.35500
C917        C  0.54392995  0.58021624  0.36674636     0.39000
C918        C  0.66122982  0.70448896  0.33486890    -0.04600
C919        C  0.68200677  0.73238963  0.30743342     0.02600
C920        C  0.71397530  0.71888044  0.27767700    -0.04200
C921        C  0.71631970  0.67493841  0.27247022    -0.00400
C922        C  0.69925943  0.64823537  0.30317411    -0.03000
C923        C  0.62956444  0.71858069  0.36511172     0.36300
C924        C  0.72661784  0.65506297  0.23228175     0.39900
C925        C  0.66936590  0.77459022  0.31181783     0.39000
C926        C  0.70723941  0.60452795  0.30050662     0.36000
C927        C  0.58923101  0.63263372  0.31099456     0.36700
C928        C  0.66634900  0.58274863  0.46960968     0.39900
N929        N  0.65593776  0.80697869  0.31752286    -0.38200
N930        N  0.60418295  0.72935657  0.38919458    -0.39800
N931        N  0.73284526  0.63747325  0.20066182    -0.37500
N932        N  0.71350250  0.56980050  0.29824169    -0.39900
N933        N  0.74647210  0.64021683  0.41995384    -0.39700
N934        N  0.68278640  0.57309342  0.50142699    -0.37300
N935        N  0.51096232  0.56834659  0.35595602    -0.38400
N936        N  0.57432390  0.64270252  0.27858080    -0.40000
C937        C  0.65170292  0.29448431  0.71020360    -0.04900
C938        C  0.66670938  0.32192923  0.67965192     0.09200
C939        C  0.71031611  0.33004385  0.67831782    -0.02300
C940        C  0.73943849  0.30775585  0.70436240    -0.00600
C941        C  0.72540953  0.27562654  0.73250019    -0.04200
C942        C  0.68000811  0.27433671  0.73856819     0.02800
C943        C  0.63601052  0.34532504  0.65173472     0.09700
C944        C  0.72537724  0.36038899  0.64816839     0.35500
C945        C  0.66097127  0.26053293  0.77805934     0.39000
C946        C  0.62231575  0.38443407  0.66452294    -0.04600
C947        C  0.59387260  0.40684990  0.63835019     0.02600
C948        C  0.57999095  0.39120434  0.59792172    -0.04200
C949        C  0.59272335  0.35108283  0.58608500    -0.00400
C950        C  0.61960761  0.32808046  0.61335810    -0.03000
C951        C  0.63709292  0.40130137  0.70527511     0.36300
C952        C  0.57950302  0.33318556  0.54530719     0.39900
C953        C  0.57764841  0.44521797  0.65438131     0.39000
C954        C  0.62962984  0.28621230  0.60208572     0.36000
C955        C  0.60622755  0.28900807  0.71427350     0.36700
C956        C  0.78371410  0.31743356  0.69866714     0.39900
N957        N  0.56464309  0.47556838  0.66792917    -0.38200
N958        N  0.64895247  0.41459219  0.73782371    -0.39800
N959        N  0.56933493  0.31816980  0.51302940    -0.37500
N960        N  0.63638971  0.25266303  0.59263934    -0.39900
N961        N  0.73718065  0.38449971  0.62401424    -0.39700
N962        N  0.81792188  0.32783610  0.69154255    -0.37300
N963        N  0.64525844  0.25224705  0.81028974    -0.38400
N964        N  0.57003678  0.28481343  0.71751348    -0.40000
C965        C  0.29756241  0.68167150  0.64877836    -0.04900
C966        C  0.32307203  0.65339809  0.67074399     0.09200
C967        C  0.31969191  0.65105265  0.71556511    -0.02300
C968        C  0.29467022  0.67948926  0.73898126    -0.00600
C969        C  0.26890171  0.71018935  0.71775959    -0.04200
C970        C  0.26889349  0.70756274  0.67114605     0.02800
C971        C  0.35289739  0.62556015  0.64621490     0.09700
C972        C  0.34296097  0.61913920  0.73783199     0.35500
C973        C  0.23777950  0.72726220  0.64394053     0.39000
C974        C  0.39667067  0.63406487  0.64472356    -0.04600
C975        C  0.42343304  0.61207483  0.61658738     0.02600
C976        C  0.40782208  0.57853663  0.59199031    -0.04200
C977        C  0.36451047  0.56769346  0.59683092    -0.00400
C978        C  0.33720392  0.59166335  0.62270884    -0.03000
C979        C  0.41484804  0.66577072  0.67192555     0.36300
C980        C  0.34749957  0.53176046  0.57537360     0.39900
C981        C  0.46591606  0.62735903  0.61078266     0.39000
C982        C  0.29255083  0.58171096  0.62490771     0.36000
C983        C  0.30046590  0.68351477  0.60212942     0.36700
C984        C  0.29951770  0.67777486  0.78531561     0.39900
N985        N  0.49883877  0.64232035  0.60743395    -0.38200
N986        N  0.43132230  0.69002468  0.69353805    -0.39800
N987        N  0.33327245  0.50317832  0.55860561    -0.37500
N988        N  0.25684182  0.57407883  0.62654835    -0.39900
N989        N  0.36135163  0.59350159  0.75532949    -0.39700
N990        N  0.30626608  0.67384738  0.82173092    -0.37300
N991        N  0.21328658  0.74101843  0.62020658    -0.38400
N992        N  0.30287481  0.68483544  0.56502424    -0.40000
C993        C  0.38838503  0.33219979  0.40258591    -0.04900
C994        C  0.38219108  0.34462460  0.35970724     0.09200
C995        C  0.40536642  0.37769878  0.34341003    -0.02300
C996        C  0.43095307  0.40113574  0.37129748    -0.00600
C997        C  0.43103523  0.39321187  0.41603374    -0.04200
C998        C  0.41247347  0.35661781  0.43102912     0.02800
C999        C  0.35190484  0.32239402  0.33123439     0.09700
C1000       C  0.40292751  0.38742490  0.29794417     0.35500
C1001       C  0.41795236  0.34353797  0.47528952     0.39000
C1002       C  0.30973039  0.33526750  0.32788574    -0.04600
C1003       C  0.28034053  0.31307501  0.30218876     0.02600
C1004       C  0.29330715  0.27737235  0.27837020    -0.04200
C1005       C  0.33877247  0.27230488  0.27510320    -0.00400
C1006       C  0.36641700  0.29100842  0.30489467    -0.03000
C1007       C  0.29615500  0.37037245  0.35300677     0.36300
C1008       C  0.35970231  0.25524506  0.23772178     0.39900
C1009       C  0.23700541  0.32743969  0.30295211     0.39000
C1010       C  0.41087803  0.27952587  0.30682090     0.36000
C1011       C  0.37080983  0.29390130  0.41724963     0.36700
C1012       C  0.45885486  0.43187080  0.35363712     0.39900
N1013       N  0.20360178  0.34168987  0.30513745    -0.38200
N1014       N  0.28538937  0.39824314  0.37311230    -0.39800
N1015       N  0.37781105  0.24338491  0.20800240    -0.37500
N1016       N  0.44622259  0.27041105  0.30848443    -0.39900
N1017       N  0.40112131  0.39503680  0.26165268    -0.39700
N1018       N  0.48168789  0.45589270  0.33961243    -0.37300
N1019       N  0.42235304  0.33259962  0.51040495    -0.38400
N1020       N  0.35794188  0.26305825  0.42949943    -0.40000
loop_ 
_geom_bond_atom_site_label_1 
_geom_bond_atom_site_label_2 
_geom_bond_distance 
_geom_bond_site_symmetry_2 
_ccdc_geom_bond_type 
O1            C9   1.268       .  A
O1          Co21   1.997       .  S
O2           C10   1.249       .  A
O2          Co22   1.967       .  S
O3           C11   1.257       .  A
O3          Co23   1.958       .  S
O4           C12   1.255       .  A
O4          Co24   2.018       .  S
O5           C11   1.272       .  A
O5          Co22   2.027       .  S
O6           C12   1.244       .  A
O6          Co21   1.976       .  S
O7           C10   1.252       .  A
O7          Co24   1.984       .  S
O8            C9   1.265       .  A
O8          Co23   1.968       .  S
C9          C997   1.483       .  S
C10         C913   1.492       .  S
C11         C885   1.511       .  S
C12         C857   1.512       .  S
O13          C26   1.271       .  A
O13         Co21   1.893       .  S
O14          C27   1.268       .  A
O14         Co22   2.005       .  S
O15          C28   1.261       .  A
O15         Co23   1.977       .  S
O16          C29   1.302       .  A
O16         Co24   2.079       .  S
O17          C29   1.272       .  A
O17         Co22   1.882       .  S
O18          C28   1.267       .  A
O18         Co21   1.993       .  S
O19          C26   1.303       .  A
O19         Co24   2.090       .  S
O20          C27   1.271       .  A
O20         Co23   2.027       .  S
Co21         O25   1.926       .  S
Co22         O25   1.934       .  S
Co23         O25   2.065       .  S
Co24         O25   2.249       .  S
C26         C948   1.508       .  S
C27         C976   1.516       .  S
C28         C829   1.494       .  S
C29         C801   1.485       .  S
O30          C38   1.265       .  A
O30         Co50   2.039   1_656  S
O31          C39   1.284       .  A
O31         Co51   2.053   1_556  S
O32          C40   1.260       .  A
O32         Co52   1.961       .  S
O33          C41   1.266       .  A
O33         Co53   1.889   1_556  S
O34          C40   1.271       .  A
O34         Co51   2.022   1_656  S
O35          C41   1.295       .  A
O35         Co50   2.089   1_556  S
O36          C39   1.269       .  A
O36         Co53   1.983   1_556  S
O37          C38   1.249       .  A
O37         Co52   1.968       .  S
C38         C780   1.512       .  S
C39         C661   1.518       .  S
C40         C696   1.500       .  S
C41         C717   1.485       .  S
O42          C55   1.263       .  A
O42         Co50   1.883       .  S
O43          C56   1.256       .  A
O43         Co51   1.953   1_655  S
O44          C57   1.285       .  A
O44         Co52   2.063   1_554  S
O45          C58   1.266       .  A
O45         Co53   2.032       .  S
O46          C58   1.250       .  A
O46         Co51   1.962       .  S
O47          C57   1.265       .  A
O47         Co50   1.975   1_655  S
O48          C55   1.297       .  A
O48         Co53   2.095       .  S
O49          C56   1.270       .  A
O49         Co52   2.022   1_554  S
Co50         O54   2.025   1_455  S
Co51         O54   2.028   1_455  S
Co52         O54   2.035   1_556  S
Co53         O54   2.022   1_455  S
C55         C577   1.485       .  S
C56         C640   1.489       .  S
C57         C745   1.505       .  S
C58         C612   1.507       .  S
C59         C528   1.610       .  S
C59         C549   1.620       .  S
C59         C773   1.623       .  S
C59         C941   1.617       .  S
O60          C68   1.266       .  A
O60         Co80   1.976       .  S
O61          C69   1.250       .  A
O61         Co81   1.982   1_554  S
O62          C70   1.247       .  A
O62         Co82   1.984       .  S
O63          C71   1.266       .  A
O63         Co83   1.994   1_545  S
O64          C70   1.256       .  A
O64         Co81   2.017       .  S
O65          C71   1.261       .  A
O65         Co80   1.973   1_554  S
O66          C69   1.249       .  A
O66         Co83   1.983       .  S
O67          C68   1.272       .  A
O67         Co82   2.009   1_545  S
C68         C444   1.496       .  S
C69         C381   1.486       .  S
C70         C493   1.517       .  S
C71         C360   1.479       .  S
O72          C85   1.272       .  A
O72         Co80   2.032   1_554  S
O73          C86   1.289       .  A
O73         Co81   2.032       .  S
O74          C87   1.258       .  A
O74         Co82   1.996   1_545  S
O75          C88   1.268       .  A
O75         Co83   1.887       .  S
O76          C88   1.297       .  A
O76         Co81   2.066   1_554  S
O77          C87   1.266       .  A
O77         Co80   2.011       .  S
O78          C85   1.268       .  A
O78         Co83   2.013   1_545  S
O79          C86   1.277       .  A
O79         Co82   1.921       .  S
Co80         O84   2.079       .  S
Co81         O84   2.253   1_565  S
Co82         O84   1.937   1_565  S
Co83         O84   1.930   1_564  S
C85         C332   1.518       .  S
C86         C409   1.486       .  S
C87         C556   1.508       .  S
C88         C465   1.499       .  S
C89         C297   1.627       .  S
C89         C500   1.622       .  S
C89         C668   1.621       .  S
C89         C969   1.625       .  S
O90          C98   1.286       .  A
O90        Co110   2.052       .  S
O91          C99   1.269       .  A
O91        Co111   2.028   1_455  S
O92         C100   1.265       .  A
O92        Co112   1.901       .  S
O93         C101   1.260       .  A
O93        Co113   1.963       .  S
O94         C100   1.294       .  A
O94        Co111   2.085       .  S
O95         C101   1.271       .  A
O95        Co110   2.033   1_455  S
O96          C99   1.258       .  A
O96        Co113   1.973   1_565  S
O97          C98   1.267       .  A
O97        Co112   1.970   1_545  S
C98         C521   1.494       .  S
C99         C304   1.518       .  S
C100        C192   1.483       .  S
C101        C129   1.503       .  S
O102        C115   1.255       .  A
O102       Co110   1.947   1_455  S
O103        C116   1.267       .  A
O103       Co111   1.893       .  S
O104        C117   1.263       .  A
O104       Co112   2.038   1_545  S
O105        C118   1.276       .  A
O105       Co113   2.027   1_565  S
O106        C118   1.267       .  A
O106       Co111   1.978   1_455  S
O107        C117   1.251       .  A
O107       Co110   1.984       .  S
O108        C115   1.272       .  A
O108       Co113   2.028       .  S
O109        C116   1.297       .  A
O109       Co112   2.096       .  S
Co110       O114   2.026   1_655  S
Co111       O114   2.010   1_665  S
Co112       O114   2.020   1_665  S
Co113       O114   2.046       .  S
C115        C157   1.480       .  S
C116        C241   1.500       .  S
C117        C276   1.508       .  S
C118        C213   1.521       .  S
C119        C248   1.609       .  S
C119        C472   1.610       .  S
C119        C633   1.606       .  S
C119        C920   1.613       .  S
C120        C164   1.599       .  S
C120        C353   1.593       .  S
C120        C584   1.604       .  S
C120       C1004   1.602       .  S
C121        C269   1.626       .  S
C121        C325   1.623       .  S
C121        C752   1.624       .  S
C121        C864   1.621       .  S
C122        C220   1.614       .  S
C122        C388   1.610       .  S
C122        C605   1.608       .  S
C122        C892   1.610       .  S
C123        C136   1.614       .  S
C123        C437   1.606       .  S
C123        C724   1.616       .  S
C123        C836   1.604       .  S
C124        C185   1.609       .  S
C124        C416   1.613       .  S
C124        C689   1.606       .  S
C124        C808   1.605       .  S
C125        C126   1.414       .  A
C125        C130   1.417       .  A
C125        C143   1.450       .  S
C126        C131   1.512       .  S
C126        C127   1.415       .  A
C127        C128   1.411       .  A
C127        C132   1.452       .  S
C128        C129   1.420       .  A
C128        C144   1.454       .  S
C129        C130   1.418       .  A
C130        C133   1.450       .  S
C131        C134   1.405       .  A
C131        C138   1.399       .  A
C132        N149   1.157       .  T
C133        N151   1.157       .  T
C134        C135   1.422       .  A
C134        C139   1.455       .  S
C135        C136   1.447       .  A
C135        C141   1.443       .  S
C136        C137   1.451       .  A
C137        C138   1.417       .  A
C137        C140   1.448       .  S
C138        C142   1.456       .  S
C139        N146   1.157       .  T
C140        N147   1.157       .  T
C141        N145   1.157       .  T
C142        N148   1.157       .  T
C143        N152   1.157       .  T
C144        N150   1.158       .  T
C153        C154   1.406       .  A
C153        C158   1.402       .  A
C153        C171   1.451       .  S
C154        C159   1.486       .  S
C154        C155   1.409       .  A
C155        C156   1.408       .  A
C155        C160   1.452       .  S
C156        C157   1.412       .  A
C156        C172   1.446       .  S
C157        C158   1.420       .  A
C158        C161   1.455       .  S
C159        C162   1.397       .  A
C159        C166   1.393       .  A
C160        N177   1.157       .  T
C161        N179   1.158       .  T
C162        C163   1.414       .  A
C162        C167   1.458       .  S
C163        C164   1.446       .  A
C163        C169   1.442       .  S
C164        C165   1.453       .  A
C165        C166   1.409       .  A
C165        C168   1.452       .  S
C166        C170   1.456       .  S
C167        N174   1.157       .  T
C168        N175   1.157       .  T
C169        N173   1.156       .  T
C170        N176   1.157       .  T
C171        N180   1.157       .  T
C172        N178   1.156       .  T
C181        C182   1.394       .  A
C181        C186   1.416       .  A
C181        C199   1.460       .  S
C182        C187   1.492       .  S
C182        C183   1.393       .  A
C183        C184   1.415       .  A
C183        C188   1.456       .  S
C184        C185   1.453       .  A
C184        C200   1.449       .  S
C185        C186   1.451       .  A
C186        C189   1.440       .  S
C187        C190   1.409       .  A
C187        C194   1.408       .  A
C188        N205   1.157       .  T
C189        N207   1.156       .  T
C190        C191   1.407       .  A
C190        C195   1.450       .  S
C191        C192   1.412       .  A
C191        C197   1.449       .  S
C192        C193   1.417       .  A
C193        C194   1.409       .  A
C193        C196   1.449       .  S
C194        C198   1.452       .  S
C195        N202   1.157       .  T
C196        N203   1.157       .  T
C197        N201   1.156       .  T
C198        N204   1.157       .  T
C199        N208   1.157       .  T
C200        N206   1.157       .  T
C209        C210   1.413       .  A
C209        C214   1.418       .  A
C209        C227   1.451       .  S
C210        C215   1.517       .  S
C210        C211   1.414       .  A
C211        C212   1.413       .  A
C211        C216   1.454       .  S
C212        C213   1.427       .  A
C212        C228   1.452       .  S
C213        C214   1.427       .  A
C214        C217   1.451       .  S
C215        C218   1.409       .  A
C215        C222   1.404       .  A
C216        N233   1.157       .  T
C217        N235   1.157       .  T
C218        C219   1.424       .  A
C218        C223   1.453       .  S
C219        C220   1.448       .  A
C219        C225   1.449       .  S
C220        C221   1.445       .  A
C221        C222   1.409       .  A
C221        C224   1.449       .  S
C222        C226   1.455       .  S
C223        N230   1.157       .  T
C224        N231   1.157       .  T
C225        N229   1.157       .  T
C226        N232   1.157       .  T
C227        N236   1.157       .  T
C228        N234   1.158       .  T
C237        C238   1.408       .  A
C237        C242   1.410       .  A
C237        C255   1.450       .  S
C238        C243   1.499       .  S
C238        C239   1.408       .  A
C239        C240   1.411       .  A
C239        C244   1.452       .  S
C240        C241   1.424       .  A
C240        C256   1.452       .  S
C241        C242   1.421       .  A
C242        C245   1.452       .  S
C243        C246   1.395       .  A
C243        C250   1.400       .  A
C244        N261   1.157       .  T
C245        N263   1.157       .  T
C246        C247   1.416       .  A
C246        C251   1.455       .  S
C247        C248   1.452       .  A
C247        C253   1.449       .  S
C248        C249   1.449       .  A
C249        C250   1.419       .  A
C249        C252   1.445       .  S
C250        C254   1.457       .  S
C251        N258   1.157       .  T
C252        N259   1.157       .  T
C253        N257   1.157       .  T
C254        N260   1.157       .  T
C255        N264   1.157       .  T
C256        N262   1.157   1_655  T
C265        C266   1.401       .  A
C265        C270   1.425       .  A
C265        C283   1.453       .  S
C266        C271   1.523       .  S
C266        C267   1.406       .  A
C267        C268   1.427       .  A
C267        C272   1.455       .  S
C268        C269   1.452       .  A
C268        C284   1.448       .  S
C269        C270   1.452       .  A
C270        C273   1.449       .  S
C271        C274   1.415       .  A
C271        C278   1.414       .  A
C272        N289   1.157       .  T
C273        N291   1.157       .  T
C274        C275   1.423       .  A
C274        C279   1.449       .  S
C275        C276   1.419       .  A
C275        C281   1.450       .  S
C276        C277   1.415       .  A
C277        C278   1.417       .  A
C277        C280   1.448       .  S
C278        C282   1.448       .  S
C279        N286   1.157       .  T
C280        N287   1.156       .  T
C281        N285   1.157       .  T
C282        N288   1.157       .  T
C283        N292   1.157       .  T
C284        N290   1.158       .  T
C293        C294   1.398       .  A
C293        C298   1.422       .  A
C293        C311   1.456       .  S
C294        C299   1.514       .  S
C294        C295   1.401       .  A
C295        C296   1.425       .  A
C295        C300   1.454       .  S
C296        C297   1.452       .  A
C296        C312   1.448       .  S
C297        C298   1.456       .  A
C298        C301   1.448       .  S
C299        C302   1.409       .  A
C299        C306   1.411       .  A
C300        N317   1.157       .  T
C301        N319   1.158       .  T
C302        C303   1.417       .  A
C302        C307   1.452       .  S
C303        C304   1.427       .  A
C303        C309   1.451       .  S
C304        C305   1.425       .  A
C305        C306   1.419       .  A
C305        C308   1.451       .  S
C306        C310   1.450       .  S
C307        N314   1.157       .  T
C308        N315   1.158       .  T
C309        N313   1.158       .  T
C310        N316   1.157       .  T
C311        N320   1.157       .  T
C312        N318   1.157       .  T
C321        C322   1.403       .  A
C321        C326   1.425       .  A
C321        C339   1.455       .  S
C322        C327   1.521       .  S
C322        C323   1.402       .  A
C323        C324   1.423       .  A
C323        C328   1.453       .  S
C324        C325   1.450       .  A
C324        C340   1.450       .  S
C325        C326   1.452       .  A
C326        C329   1.447       .  S
C327        C330   1.412       .  A
C327        C334   1.410       .  A
C328        N345   1.157       .  T
C329        N347   1.158       .  T
C330        C331   1.422       .  A
C330        C335   1.449       .  S
C331        C332   1.421       .  A
C331        C337   1.448       .  S
C332        C333   1.424       .  A
C333        C334   1.422       .  A
C333        C336   1.447       .  S
C334        C338   1.452       .  S
C335        N342   1.157       .  T
C336        N343   1.156       .  T
C337        N341   1.156   1_554  T
C338        N344   1.157       .  T
C339        N348   1.157       .  T
C340        N346   1.157       .  T
C349        C350   1.404       .  A
C349        C354   1.410       .  A
C349        C367   1.458       .  S
C350        C355   1.489       .  S
C350        C351   1.395       .  A
C351        C352   1.407       .  A
C351        C356   1.456       .  S
C352        C353   1.453       .  A
C352        C368   1.453       .  S
C353        C354   1.441       .  A
C354        C357   1.444       .  S
C355        C358   1.410       .  A
C355        C362   1.407       .  A
C356        N373   1.157       .  T
C357        N375   1.156       .  T
C358        C359   1.406       .  A
C358        C363   1.452       .  S
C359        C360   1.415       .  A
C359        C365   1.449       .  S
C360        C361   1.415       .  A
C361        C362   1.404       .  A
C361        C364   1.445       .  S
C362        C366   1.454       .  S
C363        N370   1.157       .  T
C364        N371   1.155       .  T
C365        N369   1.156       .  T
C366        N372   1.157       .  T
C367        N376   1.158       .  T
C368        N374   1.158       .  T
C377        C378   1.413       .  A
C377        C382   1.411       .  A
C377        C395   1.450       .  S
C378        C383   1.502       .  S
C378        C379   1.413       .  A
C379        C380   1.409       .  A
C379        C384   1.448       .  S
C380        C381   1.414       .  A
C380        C396   1.453       .  S
C381        C382   1.408       .  A
C382        C385   1.445       .  S
C383        C386   1.399       .  A
C383        C390   1.402       .  A
C384        N401   1.157       .  T
C385        N403   1.156       .  T
C386        C387   1.415       .  A
C386        C391   1.456       .  S
C387        C388   1.450       .  A
C387        C393   1.450       .  S
C388        C389   1.447       .  A
C389        C390   1.420       .  A
C389        C392   1.449       .  S
C390        C394   1.453       .  S
C391        N398   1.157       .  T
C392        N399   1.157       .  T
C393        N397   1.157       .  T
C394        N400   1.157       .  T
C395        N404   1.157       .  T
C396        N402   1.157       .  T
C405        C406   1.415       .  A
C405        C410   1.412       .  A
C405        C423   1.449       .  S
C406        C411   1.495       .  S
C406        C407   1.407       .  A
C407        C408   1.404       .  A
C407        C412   1.453       .  S
C408        C409   1.421       .  A
C408        C424   1.454       .  S
C409        C410   1.413       .  A
C410        C413   1.452       .  S
C411        C414   1.403       .  A
C411        C418   1.396       .  A
C412        N429   1.157       .  T
C413        N431   1.158       .  T
C414        C415   1.420       .  A
C414        C419   1.455       .  S
C415        C416   1.446       .  A
C415        C421   1.447       .  S
C416        C417   1.450       .  A
C417        C418   1.410       .  A
C417        C420   1.451       .  S
C418        C422   1.456       .  S
C419        N426   1.157       .  T
C420        N427   1.158       .  T
C421        N425   1.158       .  T
C422        N428   1.157       .  T
C423        N432   1.157       .  T
C424        N430   1.158       .  T
C433        C434   1.403       .  A
C433        C438   1.419       .  A
C433        C451   1.454       .  S
C434        C439   1.500       .  S
C434        C435   1.398       .  A
C435        C436   1.413       .  A
C435        C440   1.455       .  S
C436        C437   1.448       .  A
C436        C452   1.449       .  S
C437        C438   1.445       .  A
C438        C441   1.448       .  S
C439        C442   1.410       .  A
C439        C446   1.412       .  A
C440        N457   1.157       .  T
C441        N459   1.157       .  T
C442        C443   1.408       .  A
C442        C447   1.452       .  S
C443        C444   1.417       .  A
C443        C449   1.450       .  S
C444        C445   1.416       .  A
C445        C446   1.413       .  A
C445        C448   1.451       .  S
C446        C450   1.448       .  S
C447        N454   1.157       .  T
C448        N455   1.158       .  T
C449        N453   1.157       .  T
C450        N456   1.157       .  T
C451        N460   1.157       .  T
C452        N458   1.157       .  T
C461        C462   1.410       .  A
C461        C466   1.412       .  A
C461        C479   1.450       .  S
C462        C467   1.499       .  S
C462        C463   1.409       .  A
C463        C464   1.410       .  A
C463        C468   1.452       .  S
C464        C465   1.423       .  A
C464        C480   1.452       .  S
C465        C466   1.420       .  A
C466        C469   1.452       .  S
C467        C470   1.397       .  A
C467        C474   1.404       .  A
C468        N485   1.157       .  T
C469        N487   1.157       .  T
C470        C471   1.410       .  A
C470        C475   1.456       .  S
C471        C472   1.448       .  A
C471        C477   1.447       .  S
C472        C473   1.444       .  A
C473        C474   1.421       .  A
C473        C476   1.447       .  S
C474        C478   1.453       .  S
C475        N482   1.157       .  T
C476        N483   1.157       .  T
C477        N481   1.156       .  T
C478        N484   1.157       .  T
C479        N488   1.157       .  T
C480        N486   1.158       .  T
C489        C490   1.412       .  A
C489        C494   1.419       .  A
C489        C507   1.451       .  S
C490        C495   1.517       .  S
C490        C491   1.412       .  A
C491        C492   1.418       .  A
C491        C496   1.450       .  S
C492        C493   1.424       .  A
C492        C508   1.451       .  S
C493        C494   1.424       .  A
C494        C497   1.450       .  S
C495        C498   1.401       .  A
C495        C502   1.404       .  A
C496        N513   1.157       .  T
C497        N515   1.157       .  T
C498        C499   1.421       .  A
C498        C503   1.456       .  S
C499        C500   1.451       .  A
C499        C505   1.445       .  S
C500        C501   1.448       .  A
C501        C502   1.425       .  A
C501        C504   1.449       .  S
C502        C506   1.453       .  S
C503        N510   1.157       .  T
C504        N511   1.157       .  T
C505        N509   1.156       .  T
C506        N512   1.157       .  T
C507        N516   1.157       .  T
C508        N514   1.157       .  T
C517        C518   1.415       .  A
C517        C522   1.415       .  A
C517        C535   1.450       .  S
C518        C523   1.510       .  S
C518        C519   1.413       .  A
C519        C520   1.412       .  A
C519        C524   1.452       .  S
C520        C521   1.417       .  A
C520        C536   1.450       .  S
C521        C522   1.411       .  A
C522        C525   1.445       .  S
C523        C526   1.403       .  A
C523        C530   1.402       .  A
C524        N541   1.157       .  T
C525        N543   1.156   1_655  T
C526        C527   1.418       .  A
C526        C531   1.456       .  S
C527        C528   1.448       .  A
C527        C533   1.445       .  S
C528        C529   1.449       .  A
C529        C530   1.419       .  A
C529        C532   1.449       .  S
C530        C534   1.455       .  S
C531        N538   1.157       .  T
C532        N539   1.157       .  T
C533        N537   1.157       .  T
C534        N540   1.157       .  T
C535        N544   1.157       .  T
C536        N542   1.157       .  T
C545        C546   1.405       .  A
C545        C550   1.426       .  A
C545        C563   1.455       .  S
C546        C551   1.516       .  S
C546        C547   1.399       .  A
C547        C548   1.420       .  A
C547        C552   1.455       .  S
C548        C549   1.452       .  A
C548        C564   1.448       .  S
C549        C550   1.450       .  A
C550        C553   1.447       .  S
C551        C554   1.414       .  A
C551        C558   1.414       .  A
C552        N569   1.157       .  T
C553        N571   1.158       .  T
C554        C555   1.413       .  A
C554        C559   1.450       .  S
C555        C556   1.422       .  A
C555        C561   1.453       .  S
C556        C557   1.420       .  A
C557        C558   1.418       .  A
C557        C560   1.450       .  S
C558        C562   1.450       .  S
C559        N566   1.157       .  T
C560        N567   1.157       .  T
C561        N565   1.158       .  T
C562        N568   1.157       .  T
C563        N572   1.158       .  T
C564        N570   1.157       .  T
C573        C574   1.408       .  A
C573        C578   1.407       .  A
C573        C591   1.452       .  S
C574        C579   1.489       .  S
C574        C575   1.407       .  A
C575        C576   1.407       .  A
C575        C580   1.450       .  S
C576        C577   1.419       .  A
C576        C592   1.452       .  S
C577        C578   1.412       .  A
C578        C581   1.444       .  S
C579        C582   1.395       .  A
C579        C586   1.399       .  A
C580        N597   1.157       .  T
C581        N599   1.154       .  T
C582        C583   1.407       .  A
C582        C587   1.456       .  S
C583        C584   1.450       .  A
C583        C589   1.451       .  S
C584        C585   1.445       .  A
C585        C586   1.417       .  A
C585        C588   1.448       .  S
C586        C590   1.454       .  S
C587        N594   1.157       .  T
C588        N595   1.157       .  T
C589        N593   1.157       .  T
C590        N596   1.157       .  T
C591        N600   1.157       .  T
C592        N598   1.157   1_554  T
C601        C602   1.406       .  A
C601        C606   1.420       .  A
C601        C619   1.455       .  S
C602        C607   1.510       .  S
C602        C603   1.399       .  A
C603        C604   1.416       .  A
C603        C608   1.455       .  S
C604        C605   1.450       .  A
C604        C620   1.449       .  S
C605        C606   1.447       .  A
C606        C609   1.447       .  S
C607        C610   1.414       .  A
C607        C614   1.409       .  A
C608        N625   1.157       .  T
C609        N627   1.158       .  T
C610        C611   1.417       .  A
C610        C615   1.451       .  S
C611        C612   1.421       .  A
C611        C617   1.450       .  S
C612        C613   1.425       .  A
C613        C614   1.412       .  A
C613        C616   1.450       .  S
C614        C618   1.453       .  S
C615        N622   1.157       .  T
C616        N623   1.158       .  T
C617        N621   1.157   1_554  T
C618        N624   1.157       .  T
C619        N628   1.157       .  T
C620        N626   1.157       .  T
C629        C630   1.400       .  A
C629        C634   1.414       .  A
C629        C647   1.457       .  S
C630        C635   1.498       .  S
C630        C631   1.399       .  A
C631        C632   1.419       .  A
C631        C636   1.456       .  S
C632        C633   1.448       .  A
C632        C648   1.444       .  S
C633        C634   1.450       .  A
C634        C637   1.451       .  S
C635        C638   1.414       .  A
C635        C642   1.409       .  A
C636        N653   1.157       .  T
C637        N655   1.158       .  T
C638        C639   1.411       .  A
C638        C643   1.449       .  S
C639        C640   1.414       .  A
C639        C645   1.452       .  S
C640        C641   1.421       .  A
C641        C642   1.406       .  A
C641        C644   1.454       .  S
C642        C646   1.453       .  S
C643        N650   1.157       .  T
C644        N651   1.158       .  T
C645        N649   1.157       .  T
C646        N652   1.157       .  T
C647        N656   1.157       .  T
C648        N654   1.156       .  T
C657        C658   1.409       .  A
C657        C662   1.417       .  A
C657        C675   1.453       .  S
C658        C663   1.519       .  S
C658        C659   1.415       .  A
C659        C660   1.421       .  A
C659        C664   1.450       .  S
C660        C661   1.421       .  A
C660        C676   1.449       .  S
C661        C662   1.426       .  A
C662        C665   1.447       .  S
C663        C666   1.405       .  A
C663        C670   1.402       .  A
C664        N681   1.157       .  T
C665        N683   1.156       .  T
C666        C667   1.425       .  A
C666        C671   1.454       .  S
C667        C668   1.450       .  A
C667        C673   1.450       .  S
C668        C669   1.452       .  A
C669        C670   1.423       .  A
C669        C672   1.447       .  S
C670        C674   1.457       .  S
C671        N678   1.157       .  T
C672        N679   1.157       .  T
C673        N677   1.157       .  T
C674        N680   1.157       .  T
C675        N684   1.157       .  T
C676        N682   1.157       .  T
C685        C686   1.401       .  A
C685        C690   1.417       .  A
C685        C703   1.455       .  S
C686        C691   1.499       .  S
C686        C687   1.397       .  A
C687        C688   1.414       .  A
C687        C692   1.456       .  S
C688        C689   1.453       .  A
C688        C704   1.451       .  S
C689        C690   1.444       .  A
C690        C693   1.447       .  S
C691        C694   1.409       .  A
C691        C698   1.407       .  A
C692        N709   1.157       .  T
C693        N711   1.157       .  T
C694        C695   1.412       .  A
C694        C699   1.451       .  S
C695        C696   1.421       .  A
C695        C701   1.452       .  S
C696        C697   1.422       .  A
C697        C698   1.410       .  A
C697        C700   1.448       .  S
C698        C702   1.453       .  S
C699        N706   1.157       .  T
C700        N707   1.156   1_556  T
C701        N705   1.158       .  T
C702        N708   1.157       .  T
C703        N712   1.157       .  T
C704        N710   1.157       .  T
C713        C714   1.411       .  A
C713        C718   1.409       .  A
C713        C731   1.452       .  S
C714        C719   1.499       .  S
C714        C715   1.413       .  A
C715        C716   1.410       .  A
C715        C720   1.449       .  S
C716        C717   1.413       .  A
C716        C732   1.452       .  S
C717        C718   1.418       .  A
C718        C721   1.452       .  S
C719        C722   1.402       .  A
C719        C726   1.396       .  A
C720        N737   1.157       .  T
C721        N739   1.158   1_556  T
C722        C723   1.422       .  A
C722        C727   1.454       .  S
C723        C724   1.447       .  A
C723        C729   1.447       .  S
C724        C725   1.452       .  A
C725        C726   1.411       .  A
C725        C728   1.452       .  S
C726        C730   1.457       .  S
C727        N734   1.157       .  T
C728        N735   1.158       .  T
C729        N733   1.157       .  T
C730        N736   1.157       .  T
C731        N740   1.157       .  T
C732        N738   1.157       .  T
C741        C742   1.414       .  A
C741        C746   1.419       .  A
C741        C759   1.449       .  S
C742        C747   1.516       .  S
C742        C743   1.411       .  A
C743        C744   1.416       .  A
C743        C748   1.452       .  S
C744        C745   1.418       .  A
C744        C760   1.446       .  S
C745        C746   1.413       .  A
C746        C749   1.444       .  S
C747        C750   1.401       .  A
C747        C754   1.401       .  A
C748        N765   1.157       .  T
C749        N767   1.156       .  T
C750        C751   1.423       .  A
C750        C755   1.457       .  S
C751        C752   1.455       .  A
C751        C757   1.448       .  S
C752        C753   1.451       .  A
C753        C754   1.424       .  A
C753        C756   1.449       .  S
C754        C758   1.455       .  S
C755        N762   1.157       .  T
C756        N763   1.157       .  T
C757        N761   1.157       .  T
C758        N764   1.157       .  T
C759        N768   1.157       .  T
C760        N766   1.156       .  T
C769        C770   1.403       .  A
C769        C774   1.421       .  A
C769        C787   1.455       .  S
C770        C775   1.515       .  S
C770        C771   1.400       .  A
C771        C772   1.423       .  A
C771        C776   1.457       .  S
C772        C773   1.458       .  A
C772        C788   1.450       .  S
C773        C774   1.445       .  A
C774        C777   1.445       .  S
C775        C778   1.414       .  A
C775        C782   1.410       .  A
C776        N793   1.158       .  T
C777        N795   1.157       .  T
C778        C779   1.419       .  A
C778        C783   1.450       .  S
C779        C780   1.419       .  A
C779        C785   1.448       .  S
C780        C781   1.428       .  A
C781        C782   1.412       .  A
C781        C784   1.452       .  S
C782        C786   1.454       .  S
C783        N790   1.157       .  T
C784        N791   1.158       .  T
C785        N789   1.157       .  T
C786        N792   1.157       .  T
C787        N796   1.157       .  T
C788        N794   1.157       .  T
C797        C798   1.416       .  A
C797        C802   1.411       .  A
C797        C815   1.451       .  S
C798        C803   1.504       .  S
C798        C799   1.413       .  A
C799        C800   1.408       .  A
C799        C804   1.453       .  S
C800        C801   1.415       .  A
C800        C816   1.451       .  S
C801        C802   1.411       .  A
C802        C805   1.450       .  S
C803        C806   1.402       .  A
C803        C810   1.402       .  A
C804        N821   1.157       .  T
C805        N823   1.157       .  T
C806        C807   1.419       .  A
C806        C811   1.456       .  S
C807        C808   1.450       .  A
C807        C813   1.448       .  S
C808        C809   1.450       .  A
C809        C810   1.412       .  A
C809        C812   1.453       .  S
C810        C814   1.457       .  S
C811        N818   1.157       .  T
C812        N819   1.158       .  T
C813        N817   1.158       .  T
C814        N820   1.157       .  T
C815        N824   1.157       .  T
C816        N822   1.157       .  T
C825        C826   1.408       .  A
C825        C830   1.403       .  A
C825        C843   1.455       .  S
C826        C831   1.502       .  S
C826        C827   1.416       .  A
C827        C828   1.416       .  A
C827        C832   1.450       .  S
C828        C829   1.413       .  A
C828        C844   1.450       .  S
C829        C830   1.425       .  A
C830        C833   1.453       .  S
C831        C834   1.400       .  A
C831        C838   1.404       .  A
C832        N849   1.157       .  T
C833        N851   1.158       .  T
C834        C835   1.417       .  A
C834        C839   1.458       .  S
C835        C836   1.449       .  A
C835        C841   1.445       .  S
C836        C837   1.446       .  A
C837        C838   1.414       .  A
C837        C840   1.452       .  S
C838        C842   1.456       .  S
C839        N846   1.157       .  T
C840        N847   1.157       .  T
C841        N845   1.156       .  T
C842        N848   1.157       .  T
C843        N852   1.157       .  T
C844        N850   1.157       .  T
C853        C854   1.409       .  A
C853        C858   1.415       .  A
C853        C871   1.452       .  S
C854        C859   1.510       .  S
C854        C855   1.411       .  A
C855        C856   1.417       .  A
C855        C860   1.451       .  S
C856        C857   1.421       .  A
C856        C872   1.447       .  S
C857        C858   1.424       .  A
C858        C861   1.449       .  S
C859        C862   1.401       .  A
C859        C866   1.398       .  A
C860        N877   1.157       .  T
C861        N879   1.156       .  T
C862        C863   1.423       .  A
C862        C867   1.454       .  S
C863        C864   1.451       .  A
C863        C869   1.449       .  S
C864        C865   1.451       .  A
C865        C866   1.417       .  A
C865        C868   1.444       .  S
C866        C870   1.457       .  S
C867        N874   1.157       .  T
C868        N875   1.156       .  T
C869        N873   1.157       .  T
C870        N876   1.157       .  T
C871        N880   1.157       .  T
C872        N878   1.156       .  T
C881        C882   1.409       .  A
C881        C886   1.415       .  A
C881        C899   1.451       .  S
C882        C887   1.500       .  S
C882        C883   1.405       .  A
C883        C884   1.409       .  A
C883        C888   1.455       .  S
C884        C885   1.431       .  A
C884        C900   1.452       .  S
C885        C886   1.425       .  A
C886        C889   1.451       .  S
C887        C890   1.396       .  A
C887        C894   1.401       .  A
C888        N905   1.158       .  T
C889        N907   1.158       .  T
C890        C891   1.414       .  A
C890        C895   1.458       .  S
C891        C892   1.447       .  A
C891        C897   1.440       .  S
C892        C893   1.449       .  A
C893        C894   1.418       .  A
C893        C896   1.451       .  S
C894        C898   1.454       .  S
C895        N902   1.157       .  T
C896        N903   1.158       .  T
C897        N901   1.154       .  T
C898        N904   1.157       .  T
C899        N908   1.157       .  T
C900        N906   1.157       .  T
C909        C910   1.409       .  A
C909        C914   1.408       .  A
C909        C927   1.452       .  S
C910        C915   1.494       .  S
C910        C911   1.408       .  A
C911        C912   1.409       .  A
C911        C916   1.451       .  S
C912        C913   1.423       .  A
C912        C928   1.453       .  S
C913        C914   1.416       .  A
C914        C917   1.450       .  S
C915        C918   1.401       .  A
C915        C922   1.394       .  A
C916        N933   1.157       .  T
C917        N935   1.157       .  T
C918        C919   1.419       .  A
C918        C923   1.454       .  S
C919        C920   1.445       .  A
C919        C925   1.446       .  S
C920        C921   1.450       .  A
C921        C922   1.410       .  A
C921        C924   1.446       .  S
C922        C926   1.457       .  S
C923        N930   1.157       .  T
C924        N931   1.155       .  T
C925        N929   1.157       .  T
C926        N932   1.157       .  T
C927        N936   1.157       .  T
C928        N934   1.158       .  T
C937        C938   1.398       .  A
C937        C942   1.416       .  A
C937        C955   1.455       .  S
C938        C943   1.508       .  S
C938        C939   1.404       .  A
C939        C940   1.424       .  A
C939        C944   1.454       .  S
C940        C941   1.445       .  A
C940        C956   1.447       .  S
C941        C942   1.450       .  A
C942        C945   1.447       .  S
C943        C946   1.410       .  A
C943        C950   1.410       .  A
C944        N961   1.157       .  T
C945        N963   1.156       .  T
C946        C947   1.415       .  A
C946        C951   1.451       .  S
C947        C948   1.419       .  A
C947        C953   1.447       .  S
C948        C949   1.423       .  A
C949        C950   1.415       .  A
C949        C952   1.450       .  S
C950        C954   1.451       .  S
C951        N958   1.157       .  T
C952        N959   1.157       .  T
C953        N957   1.156       .  T
C954        N960   1.157       .  T
C955        N964   1.157       .  T
C956        N962   1.157       .  T
C965        C966   1.404       .  A
C965        C970   1.426       .  A
C965        C983   1.455       .  S
C966        C971   1.521       .  S
C966        C967   1.401       .  A
C967        C968   1.425       .  A
C967        C972   1.454       .  S
C968        C969   1.452       .  A
C968        C984   1.448       .  S
C969        C970   1.451       .  A
C970        C973   1.445       .  S
C971        C974   1.412       .  A
C971        C978   1.412       .  A
C972        N989   1.157       .  T
C973        N991   1.157       .  T
C974        C975   1.418       .  A
C974        C979   1.450       .  S
C975        C976   1.420       .  A
C975        C981   1.446       .  S
C976        C977   1.423       .  A
C977        C978   1.421       .  A
C977        C980   1.450       .  S
C978        C982   1.450       .  S
C979        N986   1.157       .  T
C980        N987   1.157       .  T
C981        N985   1.156       .  T
C982        N988   1.157       .  T
C983        N992   1.157       .  T
C984        N990   1.157       .  T
C993        C994   1.407       .  A
C993        C998   1.406       .  A
C993       C1011   1.450       .  S
C994        C999   1.484       .  S
C994        C995   1.407       .  A
C995        C996   1.403       .  A
C995       C1000   1.451       .  S
C996        C997   1.416       .  A
C996       C1012   1.452       .  S
C997        C998   1.418       .  A
C998       C1001   1.452       .  S
C999       C1002   1.401       .  A
C999       C1006   1.392       .  A
C1000      N1017   1.157       .  T
C1001      N1019   1.158       .  T
C1002      C1003   1.416       .  A
C1002      C1007   1.454       .  S
C1003      C1004   1.443       .  A
C1003      C1009   1.449       .  S
C1004      C1005   1.451       .  A
C1005      C1006   1.403       .  A
C1005      C1008   1.453       .  S
C1006      C1010   1.456       .  S
C1007      N1014   1.157       .  T
C1008      N1015   1.157       .  T
C1009      N1013   1.157       .  T
C1010      N1016   1.157       .  T
C1011      N1020   1.157       .  T
C1012      N1018   1.158       .  T
