geometry optimzed in LAMMPS
_audit_creation_date              2020-11-30 
_audit_creation_method            'lammps2cif' 
_symmetry_space_group_name_H-M    'P1' 
_symmetry_Int_Tables_number       1 
_symmetry_cell_setting            triclinic 
loop_ 
_symmetry_equiv_pos_as_xyz 
  x,y,z 
_cell_length_a                    55.31167472 
_cell_length_b                    55.28153397288947 
_cell_length_c                    55.263817523017664 
_cell_angle_alpha                 90.03714226834974 
_cell_angle_beta                  90.00635138836147 
_cell_angle_gamma                 90.02291926221778 
loop_ 
_atom_site_label 
_atom_site_type_symbol 
_atom_site_fract_x 
_atom_site_fract_y 
_atom_site_fract_z 
_atom_site_charge 
O1          O  0.89589192  0.87623446  0.65780874    -0.85200
O2          O  0.85491157  0.90337904  0.66551424    -0.82300
C3          C  0.84938233  0.91310834  0.64550892     0.98200
O4          O  0.84273960  0.90037553  0.62777727    -0.82300
O5          O  0.83356803  0.85961520  0.59982992    -0.85000
C6          C  0.85328976  0.85368031  0.58987245     1.02800
O7          O  0.87099203  0.84687400  0.60249424    -0.77700
O8          O  0.89965722  0.83954074  0.64281844    -0.77900
C9          C  0.90889316  0.85945465  0.64953364     1.02700
O10         O  0.87698989  0.83825722  0.68774611    -0.85200
O11         O  0.83459977  0.86307802  0.69151199    -0.82300
C12         C  0.81474054  0.87260143  0.68597797     0.98200
O13         O  0.81202698  0.88164545  0.66513481    -0.82300
O14         O  0.80759674  0.83986937  0.64005775    -0.84900
C15         C  0.81317214  0.81945704  0.63183226     1.02700
O16         O  0.83404426  0.81596401  0.62299096    -0.77700
O17         O  0.86059794  0.81168630  0.66370253    -0.77900
C18         C  0.86896156  0.81713931  0.68410205     1.02700
Cr19       Cr  0.86469173  0.86938233  0.67357850     1.93700
Cr20       Cr  0.82608990  0.86946034  0.63398628     1.93200
Cr21       Cr  0.86552510  0.83055651  0.63391573     1.39100
O22         O  0.85239797  0.85664542  0.64691390    -1.23000
O23         O  0.63003924  0.84551774  0.89552772    -0.85200
O24         O  0.59944529  0.83689063  0.85695616    -0.82300
C25         C  0.58963624  0.85687895  0.85166476     0.98200
O26         O  0.60203132  0.87409806  0.84341092    -0.82300
O27         O  0.64176253  0.90229165  0.83348367    -0.85000
C28         C  0.64890512  0.91149457  0.85327415     1.02800
O29         O  0.65732916  0.89833866  0.86986927    -0.77700
O30         O  0.66783969  0.85732015  0.89630158    -0.77900
C31         C  0.64832043  0.85252598  0.90721879     1.02700
O32         O  0.66605663  0.81456683  0.87387499    -0.85200
O33         O  0.63740779  0.80990680  0.83393586    -0.82300
C34         C  0.62721320  0.81552248  0.81432881     0.98200
O35         O  0.61941770  0.83684651  0.81127523    -0.82300
O36         O  0.66082713  0.86306604  0.80458002    -0.84900
C37         C  0.68083899  0.87295225  0.80908279     1.02700
O38         O  0.68531059  0.88046654  0.83019679    -0.77700
O39         O  0.69145238  0.83773431  0.85434514    -0.77900
C40         C  0.68647531  0.81773325  0.86398255     1.02700
Cr41       Cr  0.63405603  0.82873553  0.86410808     1.93700
Cr42       Cr  0.63204667  0.86814732  0.82512220     1.93200
Cr43       Cr  0.67340025  0.86750434  0.86189852     1.39100
O44         O  0.64633841  0.85491058  0.85045672    -1.23000
O45         O  0.86916247  0.65625306  0.89541816    -0.85200
O46         O  0.89797379  0.66840617  0.85701918    -0.82300
C47         C  0.90816946  0.64852265  0.85187323     0.98200
O48         O  0.89633485  0.63170705  0.84195826    -0.82300
O49         O  0.85710269  0.60387198  0.82850453    -0.85000
C50         C  0.85157155  0.59252762  0.84757733     1.02800
O51         O  0.84313727  0.60364188  0.86560508    -0.77700
O52         O  0.83253028  0.64118474  0.89640531    -0.77900
C53         C  0.85231913  0.64605022  0.90685711     1.02700
O54         O  0.83127545  0.68716818  0.87759630    -0.85200
O55         O  0.85812576  0.69561828  0.83668970    -0.82300
C56         C  0.86893475  0.69163970  0.81699297     0.98200
O57         O  0.87827367  0.67111561  0.81331080    -0.82300
O58         O  0.83703718  0.64542548  0.80464176    -0.84900
C59         C  0.81687099  0.63575467  0.80886561     1.02700
O60         O  0.81315248  0.62516006  0.82882323    -0.77700
O61         O  0.80591884  0.66416973  0.85795805    -0.77900
C62         C  0.81052965  0.68379598  0.86860083     1.02700
Cr63       Cr  0.86331633  0.67499103  0.86558785     1.93700
Cr64       Cr  0.86614592  0.63871399  0.82406751     1.93200
Cr65       Cr  0.82563067  0.63458363  0.86149802     1.39100
O66         O  0.85175236  0.64931022  0.85053308    -1.23000
O67         O  0.60323181  0.63297198  0.65332954    -0.85200
O68         O  0.64312034  0.60464463  0.66363653    -0.82300
C69         C  0.64934337  0.59428349  0.64414121     0.98200
O70         O  0.65712601  0.60641798  0.62649988    -0.82300
O71         O  0.66700096  0.64568629  0.59751029    -0.85000
C72         C  0.64735909  0.65141801  0.58726982     1.02800
O73         O  0.63000520  0.66007681  0.59922963    -0.77700
O74         O  0.60089712  0.66982979  0.63862928    -0.77900
C75         C  0.59083755  0.65025917  0.64512225     1.02700
O76         O  0.62195496  0.67109799  0.68316701    -0.85200
O77         O  0.66350862  0.64520199  0.68954479    -0.82300
C78         C  0.68343866  0.63531656  0.68470996     0.98200
O79         O  0.68682240  0.62615061  0.66405243    -0.82300
O80         O  0.69302135  0.66688869  0.63744490    -0.84900
C81         C  0.68818881  0.68686772  0.62772324     1.02700
O82         O  0.66746061  0.69046330  0.61873861    -0.77700
O83         O  0.64053231  0.69672371  0.65957341    -0.77900
C84         C  0.63071046  0.69192904  0.67952409     1.02700
Cr85       Cr  0.63396820  0.63924970  0.67037419     1.93700
Cr86       Cr  0.67393923  0.63734225  0.63213243     1.93200
Cr87       Cr  0.63551991  0.67724905  0.63005224     1.39100
O88         O  0.64759050  0.65109110  0.64396122    -1.23000
O89         O  0.90510818  0.17014396  0.63583294    -0.85200
O90         O  0.87598752  0.15979297  0.59675741    -0.82300
C91         C  0.85901585  0.15019204  0.58492613     0.98200
O92         O  0.83909380  0.14519600  0.59515962    -0.82300
O93         O  0.84845108  0.10651451  0.62460446    -0.85000
C94         C  0.85701790  0.09438926  0.64185765     1.02800
O95         O  0.86310175  0.10482408  0.66132515    -0.77700
O96         O  0.90306923  0.13297879  0.64916133    -0.77900
C97         C  0.91550061  0.15044815  0.64138518     1.02700
O98         O  0.86575706  0.19686765  0.65690473    -0.85200
O99         O  0.83856007  0.19053844  0.61565394    -0.82300
C100        C  0.81766374  0.18704519  0.62430651     0.98200
O101        O  0.81294018  0.16748066  0.63492806    -0.82300
O102        O  0.81936431  0.12718759  0.66270336    -0.84900
C103        C  0.82411021  0.13622825  0.68324736     1.02700
O104        O  0.84435631  0.14568549  0.68732369    -0.77700
O105        O  0.88555106  0.17110358  0.67932396    -0.77900
C106        C  0.87692020  0.19201326  0.67619183     1.02700
Cr107      Cr  0.87047820  0.17737990  0.62728812     1.93700
Cr108      Cr  0.83194543  0.13762982  0.63010874     1.93200
Cr109      Cr  0.87295371  0.13938479  0.66726442     1.39100
O110        O  0.85852886  0.15132070  0.64139349    -1.23000
O111        O  0.86809229  0.40175438  0.82862890    -0.85200
O112        O  0.90606381  0.37202325  0.84185671    -0.82300
C113        C  0.91722829  0.35408294  0.85042874     0.98200
O114        O  0.90646495  0.33406246  0.85333853    -0.82300
O115        O  0.87578462  0.34336392  0.89106697    -0.85000
C116        C  0.85869744  0.35299076  0.90261821     1.02800
O117        O  0.83948626  0.35928190  0.89171680    -0.77700
O118        O  0.85152070  0.39887029  0.86446870    -0.77900
C119        C  0.86158595  0.41139540  0.84835831     1.02700
O120        O  0.84918029  0.36245850  0.79984849    -0.85200
O121        O  0.88938359  0.33561709  0.80885535    -0.82300
C122        C  0.87942121  0.31510713  0.81025580     0.98200
O123        O  0.86734045  0.30979147  0.82883252    -0.82300
O124        O  0.83866595  0.31478364  0.86887004    -0.84900
C125        C  0.81816831  0.31959966  0.85996845     1.02700
O126        O  0.81433234  0.33976595  0.85023055    -0.77700
O127        O  0.82346235  0.38049018  0.82406303    -0.77900
C128        C  0.82862202  0.37144139  0.80359452     1.02700
Cr129      Cr  0.87698673  0.36718205  0.82164758     1.93700
Cr130      Cr  0.87130455  0.32749711  0.85953726     1.93200
Cr131      Cr  0.83421116  0.36860994  0.85686979     1.39100
O132        O  0.86084326  0.35454225  0.84617676    -1.23000
O133        O  0.66464472  0.13224286  0.89336519    -0.85200
O134        O  0.67465125  0.10265339  0.85458736    -0.82300
C135        C  0.65519127  0.09264482  0.84771013     0.98200
O136        O  0.63842777  0.10477799  0.83820812    -0.82300
O137        O  0.60998251  0.14414118  0.82872405    -0.85000
C138        C  0.59982178  0.14799802  0.84889293     1.02800
O139        O  0.61155618  0.15695714  0.86631631    -0.77700
O140        O  0.65104231  0.16933976  0.89474133    -0.77900
C141        C  0.65674035  0.14991435  0.90538039     1.02700
O142        O  0.69492183  0.16984174  0.87302414    -0.85200
O143        O  0.70203108  0.14182667  0.83318481    -0.82300
C144        C  0.69709805  0.13258607  0.81295677     0.98200
O145        O  0.67624641  0.12424428  0.80893061    -0.82300
O146        O  0.64997406  0.16563986  0.80305417    -0.84900
C147        C  0.63931743  0.18515377  0.80787911     1.02700
O148        O  0.62935353  0.18774325  0.82829023    -0.77700
O149        O  0.67059965  0.19482869  0.85403192    -0.77900
C150        C  0.69091658  0.19008281  0.86305305     1.02700
Cr151      Cr  0.68207972  0.13740862  0.86254069     1.93700
Cr152      Cr  0.64445746  0.13573252  0.82171120     1.93200
Cr153      Cr  0.64163863  0.17523794  0.86012546     1.39100
O154        O  0.65600571  0.14922210  0.84827717    -1.23000
O155        O  0.65945851  0.37461868  0.59939597    -0.85200
O156        O  0.67035731  0.40305114  0.63908310    -0.82300
C157        C  0.65110042  0.41247522  0.64727537     0.98200
O158        O  0.63495280  0.39963121  0.65697655    -0.82300
O159        O  0.60769850  0.35901082  0.66671168    -0.85000
C160        C  0.59637372  0.35377783  0.64746040     1.02800
O161        O  0.60773418  0.34695028  0.62887712    -0.77700
O162        O  0.64587507  0.33762804  0.59782395    -0.77900
C163        C  0.65052562  0.35736615  0.58738323     1.02700
O164        O  0.69180029  0.33719937  0.61698844    -0.85200
O165        O  0.69953347  0.36362086  0.65776280    -0.82300
C166        C  0.69547532  0.37204535  0.67853985     0.98200
O167        O  0.67473887  0.38012648  0.68362308    -0.82300
O168        O  0.64988754  0.33781718  0.68934412    -0.84900
C169        C  0.64002686  0.31803707  0.68391456     1.02700
O170        O  0.62901538  0.31571939  0.66406891    -0.77700
O171        O  0.66873666  0.31065142  0.63532524    -0.77900
C172        C  0.68819095  0.31590745  0.62475613     1.02700
Cr173      Cr  0.67829715  0.36878123  0.62942342     1.93700
Cr174      Cr  0.64253394  0.36819634  0.67203555     1.93200
Cr175      Cr  0.63889605  0.32984335  0.63233475     1.39100
O176        O  0.65311932  0.35584861  0.64441846    -1.23000
O177        O  0.13108945  0.89816671  0.65633837    -0.85200
O178        O  0.10138219  0.85937846  0.66724417    -0.82300
C179        C  0.09047063  0.85319991  0.64799371     0.98200
O180        O  0.10197209  0.84432659  0.63042602    -0.82300
O181        O  0.14037481  0.83279358  0.60082848    -0.85000
C182        C  0.14564065  0.85218018  0.58986779     1.02800
O183        O  0.15474832  0.86957391  0.60153013    -0.77700
O184        O  0.16735906  0.89872194  0.64019422    -0.77900
C185        C  0.14856338  0.90971798  0.64731157     1.02700
O186        O  0.16921815  0.87763415  0.68530144    -0.85200
O187        O  0.14197892  0.83754850  0.69263825    -0.82300
C188        C  0.13138076  0.81793278  0.68824337     0.98200
O189        O  0.12134875  0.81441867  0.66802015    -0.82300
O190        O  0.16163117  0.80686231  0.64070266    -0.84900
C191        C  0.18106338  0.81093136  0.62963379     1.02700
O192        O  0.18498199  0.83140269  0.62015329    -0.77700
O193        O  0.19369850  0.85873376  0.66044186    -0.77900
C194        C  0.18978473  0.86880449  0.68049922     1.02700
Cr195      Cr  0.13656383  0.86712013  0.67333275     1.93700
Cr196      Cr  0.13244398  0.82662995  0.63572256     1.93200
Cr197      Cr  0.17316658  0.86387511  0.63167255     1.39100
O198        O  0.14722933  0.85277331  0.64677928    -1.23000
O199        O  0.33197004  0.86116798  0.89748954    -0.85200
O200        O  0.34411727  0.89954890  0.86834820    -0.82300
C201        C  0.35408484  0.91095342  0.85133471     0.98200
O202        O  0.35988729  0.90025280  0.83189322    -0.82300
O203        O  0.39782460  0.87025247  0.84344987    -0.85000
C204        C  0.40908459  0.85267457  0.85256951     1.02800
O205        O  0.39789532  0.83366246  0.85875880    -0.77700
O206        O  0.36854490  0.84615232  0.89698525    -0.77900
C207        C  0.35124279  0.85551598  0.90851595     1.02700
O208        O  0.30610009  0.84040295  0.85707368    -0.85200
O209        O  0.31463469  0.88070052  0.82996950    -0.82300
C210        C  0.31847919  0.87103324  0.80958898     0.98200
O211        O  0.33821560  0.86046143  0.80557546    -0.82300
O212        O  0.37787174  0.83253352  0.81358928    -0.84900
C213        C  0.36764301  0.81241969  0.81744700     1.02700
O214        O  0.35761973  0.80825273  0.83746022    -0.77700
O215        O  0.33009195  0.81671804  0.87754056    -0.77900
C216        C  0.30977861  0.82065015  0.86769018     1.02700
Cr217      Cr  0.32620351  0.86933664  0.86249793     1.93700
Cr218      Cr  0.36734571  0.86520312  0.82559854     1.93200
Cr219      Cr  0.36286017  0.82817757  0.86660021     1.39100
O220        O  0.35232724  0.85440908  0.85169577    -1.23000
O221        O  0.09968212  0.66566408  0.85783336    -0.85200
O222        O  0.13039870  0.65753071  0.89659723    -0.82300
C223        C  0.14864514  0.65048667  0.90832601     0.98200
O224        O  0.16786784  0.64461481  0.89738891    -0.82300
O225        O  0.15763535  0.60406418  0.87008849    -0.85000
C226        C  0.14894317  0.59097903  0.85356082     1.02800
O227        O  0.14230599  0.60054948  0.83375128    -0.77700
O228        O  0.10224633  0.62881099  0.84325211    -0.77900
C229        C  0.08979424  0.64580305  0.85194537     1.02700
O230        O  0.13835840  0.69268676  0.83502573    -0.85200
O231        O  0.16645261  0.68826383  0.87511820    -0.82300
C232        C  0.18727844  0.68493446  0.86612113     0.98200
O233        O  0.19214647  0.66499678  0.85625525    -0.82300
O234        O  0.18627299  0.62269861  0.83109121    -0.84900
C235        C  0.18204964  0.63123041  0.81031821     1.02700
O236        O  0.16168332  0.64008302  0.80553278    -0.77700
O237        O  0.12049181  0.66614101  0.81185135    -0.77900
C238        C  0.12912053  0.68711640  0.81496619     1.02700
Cr239      Cr  0.13448734  0.67396139  0.86508453     1.93700
Cr240      Cr  0.17382173  0.63504796  0.86288320     1.93200
Cr241      Cr  0.13272968  0.63478081  0.82564838     1.39100
O242        O  0.14679921  0.64776588  0.85137861    -1.23000
O243        O  0.37139029  0.60419171  0.65537229    -0.85200
O244        O  0.39922568  0.64435840  0.66528506    -0.82300
C245        C  0.40888052  0.65130206  0.64570094     0.98200
O246        O  0.39622512  0.65986017  0.62876915    -0.82300
O247        O  0.35584425  0.66778918  0.60067499    -0.85000
C248        C  0.35166977  0.64771822  0.59040845     1.02800
O249        O  0.34362493  0.63007611  0.60246066    -0.77700
O250        O  0.33414577  0.60107789  0.64219211    -0.77900
C251        C  0.35413271  0.59141723  0.64773962     1.02700
O252        O  0.33358635  0.62215684  0.68630376    -0.85200
O253        O  0.35938783  0.66397315  0.69266682    -0.82300
C254        C  0.36815021  0.68439632  0.68768717     0.98200
O255        O  0.37602501  0.68855046  0.66667736    -0.82300
O256        O  0.33408522  0.69304458  0.64079752    -0.84900
C257        C  0.31476546  0.68766845  0.63003289     1.02700
O258        O  0.31198577  0.66663756  0.62144522    -0.77700
O259        O  0.30707213  0.64028196  0.66324576    -0.77900
C260        C  0.31263731  0.63081943  0.68326489     1.02700
Cr261      Cr  0.36501678  0.63468554  0.67290570     1.93700
Cr262      Cr  0.36456792  0.67523125  0.63505775     1.93200
Cr263      Cr  0.32620763  0.63539331  0.63335414     1.39100
O264        O  0.35215635  0.64828696  0.64696934    -1.23000
O265        O  0.17161728  0.10093044  0.63982870    -0.85200
O266        O  0.16184083  0.13107343  0.60131836    -0.82300
C267        C  0.15468392  0.14922414  0.58957808     0.98200
O268        O  0.14988648  0.16871169  0.60049423    -0.82300
O269        O  0.11034244  0.15760127  0.62841570    -0.85000
C270        C  0.09775599  0.14949340  0.64554804     1.02800
O271        O  0.10768811  0.14389355  0.66550690    -0.77700
O272        O  0.13529646  0.10387234  0.65555733    -0.77900
C273        C  0.15157449  0.09141274  0.64558718     1.02700
O274        O  0.19969363  0.13950922  0.66119890    -0.85200
O275        O  0.19322290  0.16757561  0.62119331    -0.82300
C276        C  0.18977613  0.18846923  0.63003112     0.98200
O277        O  0.17049005  0.19319716  0.64113594    -0.82300
O278        O  0.12866253  0.18671318  0.66681966    -0.84900
C279        C  0.13804591  0.18377861  0.68739389     1.02700
O280        O  0.14814833  0.16393623  0.69225508    -0.77700
O281        O  0.17391636  0.12204274  0.68557794    -0.77900
C282        C  0.19501975  0.12983914  0.68128344     1.02700
Cr283      Cr  0.17968294  0.13555266  0.63197138     1.93700
Cr284      Cr  0.14082045  0.17455678  0.63503010     1.93200
Cr285      Cr  0.14210089  0.13439602  0.67280908     1.39100
O286        O  0.15414999  0.14797166  0.64652223    -1.23000
O287        O  0.36361901  0.33339627  0.59762306    -0.85200
O288        O  0.40266692  0.34570384  0.62619221    -0.82300
C289        C  0.41442836  0.35516817  0.64332471     0.98200
O290        O  0.40401592  0.36043994  0.66306272    -0.82300
O291        O  0.37327216  0.39853370  0.65287310    -0.85000
C292        C  0.35521093  0.40982885  0.64477767     1.02800
O293        O  0.33635218  0.39859893  0.63833204    -0.77700
O294        O  0.34847122  0.37000854  0.59913014    -0.77900
C295        C  0.35806052  0.35305490  0.58724723     1.02700
O296        O  0.34399347  0.30689833  0.63814588    -0.85200
O297        O  0.38503451  0.31514774  0.66418191    -0.82300
C298        C  0.37603775  0.31833281  0.68495243     0.98200
O299        O  0.36530366  0.33784034  0.68979413    -0.82300
O300        O  0.33669227  0.37756093  0.68298118    -0.84900
C301        C  0.31593813  0.36865688  0.67913903     1.02700
O302        O  0.31163345  0.35821858  0.65933873    -0.77700
O303        O  0.31973640  0.33125562  0.61860560    -0.77900
C304        C  0.32371174  0.31120369  0.62882209     1.02700
Cr305      Cr  0.37269613  0.32724328  0.63228874     1.93700
Cr306      Cr  0.36907255  0.36750867  0.67015550     1.93200
Cr307      Cr  0.33113014  0.36376271  0.62984250     1.39100
O308        O  0.35776058  0.35301211  0.64399382    -1.23000
O309        O  0.35300378  0.10407742  0.86532149    -0.85200
O310        O  0.34423763  0.14255445  0.89589710    -0.82300
C311        C  0.36409343  0.14828934  0.90593307     0.98200
O312        O  0.38100281  0.15707676  0.89347083    -0.82300
O313        O  0.40872390  0.16845647  0.85390659    -0.85000
C314        C  0.41902966  0.14861779  0.84923865     1.02800
O315        O  0.40689463  0.13156066  0.84010696    -0.77700
O316        O  0.36737383  0.10321526  0.82841648    -0.77900
C317        C  0.36114439  0.09234432  0.84753948     1.02700
O318        O  0.32245046  0.12529716  0.82877290    -0.85200
O319        O  0.31689981  0.16521382  0.85739250    -0.82300
C320        C  0.32210530  0.18477479  0.86786136     0.98200
O321        O  0.34307425  0.18798198  0.87631983    -0.82300
O322        O  0.36868298  0.19495189  0.83437734    -0.84900
C323        C  0.37910794  0.19075697  0.81460474     1.02700
O324        O  0.38796216  0.17009301  0.81026522    -0.77700
O325        O  0.34682950  0.14299626  0.80280390    -0.77900
C326        C  0.32686030  0.13308264  0.80765841     1.02700
Cr327      Cr  0.33617169  0.13531634  0.86100006     1.93700
Cr328      Cr  0.37448073  0.17512356  0.86339582     1.93200
Cr329      Cr  0.37627328  0.13782516  0.82249433     1.39100
O330        O  0.36227143  0.14931184  0.84897956    -1.23000
O331        O  0.15027789  0.33050073  0.89783830    -0.85200
O332        O  0.11110478  0.34353463  0.87017664    -0.82300
C333        C  0.09868111  0.35282947  0.85351747     0.98200
O334        O  0.10869187  0.35805045  0.83352270    -0.82300
O335        O  0.13797265  0.39642363  0.84478195    -0.85000
C336        C  0.15503414  0.40832501  0.85400533     1.02800
O337        O  0.17481465  0.39785330  0.85912817    -0.77700
O338        O  0.16429522  0.36750992  0.89730774    -0.77900
C339        C  0.15556505  0.34985712  0.90878241     1.02700
O340        O  0.16983264  0.30538228  0.85696418    -0.85200
O341        O  0.12859325  0.31396355  0.83117297    -0.82300
C342        C  0.13758353  0.31785681  0.81052325     0.98200
O343        O  0.14829324  0.33746108  0.80617737    -0.82300
O344        O  0.17547424  0.37806624  0.81376839    -0.84900
C345        C  0.19630548  0.36912513  0.81707195     1.02700
O346        O  0.20102316  0.35857196  0.83668074    -0.77700
O347        O  0.19412918  0.32989388  0.87648855    -0.77900
C348        C  0.18978699  0.30934469  0.86718087     1.02700
Cr349      Cr  0.14098218  0.32533376  0.86324353     1.93700
Cr350      Cr  0.14345154  0.36640732  0.82644866     1.93200
Cr351      Cr  0.18163614  0.36271270  0.86639113     1.39100
O352        O  0.15537140  0.35155047  0.85207167    -1.23000
O353        O  0.83375107  0.86086350  0.39717177    -0.85200
O354        O  0.84367255  0.90030232  0.36837866    -0.82300
C355        C  0.85291564  0.91242697  0.35144951     0.98200
O356        O  0.85981633  0.90231690  0.33208891    -0.82300
O357        O  0.89903287  0.87410791  0.34376795    -0.85000
C358        C  0.91105757  0.85708303  0.35296399     1.02800
O359        O  0.90096531  0.83706090  0.35781604    -0.77700
O360        O  0.87086828  0.84679226  0.39609228    -0.77900
C361        C  0.85332971  0.85535306  0.40784752     1.02700
O362        O  0.80878024  0.83927274  0.35609365    -0.85200
O363        O  0.81542902  0.88030319  0.32956680    -0.82300
C364        C  0.82021449  0.87186584  0.30877612     0.98200
O365        O  0.84045501  0.86228911  0.30492195    -0.82300
O366        O  0.88136431  0.83604857  0.31290068    -0.84900
C367        C  0.87143744  0.81565507  0.31581615     1.02700
O368        O  0.86141038  0.81046363  0.33556327    -0.77700
O369        O  0.83402740  0.81642256  0.37609492    -0.77900
C370        C  0.81351747  0.81963923  0.36654684     1.02700
Cr371      Cr  0.82743999  0.86917343  0.36209452     1.93700
Cr372      Cr  0.86907624  0.86787877  0.32540918     1.93200
Cr373      Cr  0.86606773  0.82964266  0.36529738     1.39100
O374        O  0.85435545  0.85580960  0.35114342    -1.23000
O375        O  0.84648276  0.63547141  0.09952972    -0.85200
O376        O  0.83533146  0.60658614  0.13851917    -0.82300
C377        C  0.85503079  0.59607289  0.14369214     0.98200
O378        O  0.87218971  0.60795657  0.15299587    -0.82300
O379        O  0.90137407  0.64723480  0.16333391    -0.85000
C380        C  0.91166074  0.65331625  0.14379799     1.02800
O381        O  0.89978714  0.66220002  0.12651250    -0.77700
O382        O  0.86064765  0.67237782  0.09754720    -0.77900
C383        C  0.85514480  0.65263812  0.08731931     1.02700
O384        O  0.81627195  0.67345830  0.11800328    -0.85200
O385        O  0.80929991  0.64689568  0.15918182    -0.82300
C386        C  0.81390397  0.63710612  0.17919594     0.98200
O387        O  0.83456936  0.62796340  0.18285387    -0.82300
O388        O  0.86183414  0.66877142  0.18973678    -0.84900
C389        C  0.87170506  0.68875359  0.18482811     1.02700
O390        O  0.88057244  0.69218536  0.16405899    -0.77700
O391        O  0.83968813  0.69894276  0.13716139    -0.77900
C392        C  0.82025235  0.69447072  0.12623375     1.02700
Cr393      Cr  0.82885268  0.64141311  0.12988361     1.93700
Cr394      Cr  0.86669705  0.63903786  0.17022623     1.93200
Cr395      Cr  0.86909355  0.67937616  0.13216212     1.39100
O396        O  0.85504451  0.65314481  0.14398090    -1.23000
O397        O  0.60266508  0.83602149  0.14171966    -0.85200
O398        O  0.62972630  0.84762322  0.10152160    -0.82300
C399        C  0.64635946  0.85683650  0.08897015     0.98200
O400        O  0.66637267  0.86239546  0.09857417    -0.82300
O401        O  0.65551755  0.90046041  0.12891821    -0.85000
C402        C  0.64730258  0.91193343  0.14685277     1.02800
O403        O  0.64422042  0.90110407  0.16680316    -0.77700
O404        O  0.60490779  0.87215147  0.15811434    -0.77900
C405        C  0.59263846  0.85545771  0.14862924     1.02700
O406        O  0.64322183  0.80892666  0.15994762    -0.85200
O407        O  0.66867295  0.81753376  0.11858691    -0.82300
C408        C  0.68965129  0.82146166  0.12688096     0.98200
O409        O  0.69454727  0.84133442  0.13691679    -0.82300
O410        O  0.68834075  0.88165330  0.16467675    -0.84900
C411        C  0.68663321  0.87094708  0.18480616     1.02700
O412        O  0.66721701  0.86059836  0.19058992    -0.77700
O413        O  0.62618306  0.83370338  0.18563262    -0.77900
C414        C  0.63477603  0.81307811  0.18065861     1.02700
Cr415      Cr  0.63689509  0.82952439  0.13149696     1.93700
Cr416      Cr  0.67428717  0.87040644  0.13312200     1.93200
Cr417      Cr  0.63657043  0.86616614  0.17324500     1.39100
O418        O  0.64907925  0.85540895  0.14584349    -1.23000
O419        O  0.63259919  0.60462547  0.34063991    -0.85200
O420        O  0.60340580  0.64429777  0.33211708    -0.82300
C421        C  0.59345289  0.64929071  0.35219425     0.98200
O422        O  0.60612943  0.65703145  0.36947618    -0.82300
O423        O  0.64625224  0.66617660  0.39750176    -0.85000
C424        C  0.65274907  0.64623833  0.40672868     1.02800
O425        O  0.66137401  0.62957174  0.39382832    -0.77700
O426        O  0.67022189  0.60244061  0.35307189    -0.77900
C427        C  0.65005519  0.59240758  0.34876513     1.02700
O428        O  0.66955288  0.62476683  0.30983163    -0.85200
O429        O  0.64252746  0.66605898  0.30542827    -0.82300
C430        C  0.63282129  0.68585988  0.31124764     0.98200
O431        O  0.62423673  0.68863102  0.33228567    -0.82300
O432        O  0.66596587  0.69419834  0.35815395    -0.84900
C433        C  0.68599924  0.68952446  0.36779348     1.02700
O434        O  0.69044965  0.66837604  0.37531327    -0.77700
O435        O  0.69546983  0.64357066  0.33302225    -0.77900
C436        C  0.69037084  0.63369820  0.31317437     1.02700
Cr437      Cr  0.63787173  0.63584968  0.32397977     1.93700
Cr438      Cr  0.63669188  0.67455977  0.36347123     1.93200
Cr439      Cr  0.67731125  0.63681442  0.36283323     1.39100
O440        O  0.65046040  0.64892416  0.35028880    -1.23000
O441        O  0.60160352  0.14419005  0.16276777    -0.85200
O442        O  0.63170472  0.10517188  0.15461536    -0.82300
C443        C  0.64956707  0.09314300  0.14718082     0.98200
O444        O  0.66908615  0.10365837  0.14127258    -0.82300
O445        O  0.65949221  0.12974479  0.10017725    -0.85000
C446        C  0.65018618  0.14575680  0.08696897     1.02800
O447        O  0.64294952  0.16562877  0.09595945    -0.77700
O448        O  0.60375171  0.15577067  0.12499896    -0.77900
C449        C  0.59139275  0.14863935  0.14269736     1.02700
O450        O  0.64093363  0.16724359  0.18819970    -0.85200
O451        O  0.66864039  0.12657356  0.18433616    -0.82300
C452        C  0.68901561  0.13630578  0.18053668     0.98200
O453        O  0.69350933  0.14582551  0.16043454    -0.82300
O454        O  0.68719887  0.16988346  0.11814255    -0.84900
C455        C  0.68244809  0.19082515  0.12613932     1.02700
O456        O  0.66194768  0.19523354  0.13480290    -0.77700
O457        O  0.62127485  0.18889081  0.16152528    -0.77900
C458        C  0.63024789  0.18650845  0.18251448     1.02700
Cr459      Cr  0.63647451  0.13670707  0.17045080     1.93700
Cr460      Cr  0.67525906  0.13803736  0.13097509     1.93200
Cr461      Cr  0.63353720  0.17447635  0.13016741     1.39100
O462        O  0.64825146  0.14954438  0.14363912    -1.23000
O463        O  0.60336181  0.37281943  0.34076910    -0.85200
O464        O  0.64314112  0.40004873  0.32876032    -0.82300
C465        C  0.64837771  0.41050815  0.34843397     0.98200
O466        O  0.65806911  0.39857500  0.36532385    -0.82300
O467        O  0.66858051  0.35960407  0.39462784    -0.85000
C468        C  0.64894838  0.35531977  0.40555067     1.02800
O469        O  0.63114508  0.34672931  0.39421143    -0.77700
O470        O  0.60090382  0.33650511  0.35627360    -0.77900
C471        C  0.59120686  0.35663929  0.35124440     1.02700
O472        O  0.62050620  0.33387445  0.31066402    -0.85200
O473        O  0.66214174  0.35946633  0.30225164    -0.82300
C474        C  0.68255622  0.36862339  0.30658007     0.98200
O475        O  0.68718604  0.37748899  0.32718751    -0.82300
O476        O  0.69309512  0.33697913  0.35495012    -0.84900
C477        C  0.68784358  0.31728989  0.36519095     1.02700
O478        O  0.66715675  0.31455633  0.37453751    -0.77700
O479        O  0.63876136  0.30796135  0.33439561    -0.77900
C480        C  0.62841880  0.31276777  0.31464864     1.02700
Cr481      Cr  0.63339012  0.36565679  0.32264966     1.93700
Cr482      Cr  0.67465534  0.36722739  0.35971082     1.93200
Cr483      Cr  0.63538078  0.32837801  0.36370706     1.39100
O484        O  0.64778621  0.35376594  0.34870428    -1.23000
O485        O  0.84751687  0.10561130  0.36563376    -0.85200
O486        O  0.83628908  0.14529024  0.39384563    -0.82300
C487        C  0.85578312  0.15151872  0.40409848     0.98200
O488        O  0.87295887  0.16034543  0.39197958    -0.82300
O489        O  0.90162988  0.17076511  0.35253504    -0.85000
C490        C  0.91202096  0.15083276  0.34824859     1.02800
O491        O  0.90047256  0.13343088  0.33904656    -0.77700
O492        O  0.86185250  0.10387312  0.32868034    -0.77900
C493        C  0.85690680  0.09367167  0.34856677     1.02700
O494        O  0.81704760  0.12371650  0.32784987    -0.85200
O495        O  0.80976808  0.16535233  0.35350962    -0.82300
C496        C  0.81433518  0.18562163  0.36286503     0.98200
O497        O  0.83477823  0.18964085  0.37226394    -0.82300
O498        O  0.86150435  0.19606167  0.33104816    -0.84900
C499        C  0.87129537  0.19098295  0.31108427     1.02700
O500        O  0.88056519  0.17032997  0.30780145    -0.77700
O501        O  0.83995687  0.14267097  0.30189574    -0.77900
C502        C  0.82007830  0.13280865  0.30713896     1.02700
Cr503      Cr  0.82963025  0.13609118  0.35942246     1.93700
Cr504      Cr  0.86693206  0.17714024  0.36093533     1.93200
Cr505      Cr  0.86971311  0.13841515  0.32131995     1.39100
O506        O  0.85556043  0.15042230  0.34736043    -1.23000
O507        O  0.83160289  0.40257345  0.13439541    -0.85200
O508        O  0.84472342  0.37300789  0.09610455    -0.82300
C509        C  0.85398663  0.35561993  0.08464199     0.98200
O510        O  0.85819401  0.33585010  0.09547788    -0.82300
O511        O  0.89627847  0.34689213  0.12531755    -0.85000
C512        C  0.90779236  0.35654292  0.14246800     1.02800
O513        O  0.89700095  0.36251118  0.16185286    -0.77700
O514        O  0.86788889  0.40135790  0.15025503    -0.77900
C515        C  0.85094603  0.41317282  0.14065956     1.02700
O516        O  0.80489197  0.36250878  0.15423107    -0.85200
O517        O  0.81351457  0.33512193  0.11436442    -0.82300
C518        C  0.81644138  0.31485493  0.12470146     0.98200
O519        O  0.83598621  0.31061871  0.13545391    -0.82300
O520        O  0.87610006  0.31745978  0.16312139    -0.84900
C521        C  0.86638337  0.32141402  0.18346840     1.02700
O522        O  0.85661217  0.34151949  0.18770022    -0.77700
O523        O  0.82897740  0.38143919  0.17927861    -0.77900
C524        C  0.80858727  0.37197063  0.17457850     1.02700
Cr525      Cr  0.82566128  0.36757533  0.12585111     1.93700
Cr526      Cr  0.86556866  0.32970309  0.13056029     1.93200
Cr527      Cr  0.86191228  0.37068377  0.16775522     1.39100
O528        O  0.85119912  0.35613943  0.14133836    -1.23000
O529        O  0.15983807  0.13069329  0.39540335    -0.85200
O530        O  0.17148792  0.10299187  0.35604420    -0.82300
C531        C  0.15173180  0.09222737  0.35173629     0.98200
O532        O  0.13404347  0.10356745  0.34296304    -0.82300
O533        O  0.10375918  0.14156128  0.33264433    -0.85000
C534        C  0.09331589  0.14600087  0.35254178     1.02800
O535        O  0.10530708  0.15489250  0.36983995    -0.77700
O536        O  0.14460291  0.16716406  0.39834976    -0.77900
C537        C  0.15163087  0.14765960  0.40812118     1.02700
O538        O  0.18828119  0.17031361  0.37696086    -0.85200
O539        O  0.19579217  0.14438546  0.33559056    -0.82300
C540        C  0.19137298  0.13381260  0.31593397     0.98200
O541        O  0.17101627  0.12392605  0.31239790    -0.82300
O542        O  0.14250107  0.16408527  0.30623315    -0.84900
C543        C  0.13158492  0.18346687  0.31127869     1.02700
O544        O  0.12255139  0.18631313  0.33211006    -0.77700
O545        O  0.16356893  0.19499046  0.35842456    -0.77900
C546        C  0.18368220  0.19104280  0.36839487     1.02700
Cr547      Cr  0.17688281  0.13783518  0.36503570     1.93700
Cr548      Cr  0.13860671  0.13428680  0.32543366     1.93200
Cr549      Cr  0.13505764  0.17395091  0.36386529     1.39100
O550        O  0.15012044  0.14864245  0.35150607    -1.23000
O551        O  0.10130750  0.34417298  0.12943935    -0.85200
O552        O  0.14020190  0.33625365  0.09919746    -0.82300
C553        C  0.14567958  0.35640258  0.08971634     0.98200
O554        O  0.15386810  0.37330613  0.10257037    -0.82300
O555        O  0.16380318  0.40097136  0.14238050    -0.85000
C556        C  0.14379962  0.41032415  0.14848142     1.02800
O557        O  0.12710369  0.39750279  0.15724570    -0.77700
O558        O  0.09995587  0.35670337  0.16707628    -0.77900
C559        C  0.08937433  0.35142657  0.14745839     1.02700
O560        O  0.12257452  0.31303771  0.16553500    -0.85200
O561        O  0.16282244  0.30863405  0.13725976    -0.82300
C562        C  0.18257219  0.31448013  0.12751379     0.98200
O563        O  0.18552208  0.33576783  0.11967400    -0.82300
O564        O  0.19179545  0.36110994  0.16165977    -0.84900
C565        C  0.18704936  0.37066742  0.18177393     1.02700
O566        O  0.16609487  0.37879770  0.18584105    -0.77700
O567        O  0.14128148  0.33651872  0.19136988    -0.77900
C568        C  0.13214512  0.31635200  0.18610184     1.02700
Cr569      Cr  0.13268398  0.32755208  0.13371794     1.93700
Cr570      Cr  0.17179823  0.36685303  0.13261672     1.93200
Cr571      Cr  0.13438661  0.36641350  0.17331310     1.39100
O572        O  0.14614717  0.35371436  0.14639465    -1.23000
O573        O  0.35845287  0.10205483  0.16111280    -0.85200
O574        O  0.39752215  0.13142113  0.15162363    -0.82300
C575        C  0.40952653  0.14911434  0.14380618     0.98200
O576        O  0.39929624  0.16912158  0.13955179    -0.82300
O577        O  0.37039088  0.15979999  0.10005733    -0.85000
C578        C  0.35299035  0.15190358  0.08765515     1.02800
O579        O  0.33316599  0.14627556  0.09776818    -0.77700
O580        O  0.34261379  0.10582954  0.12489272    -0.77900
C581        C  0.35156107  0.09281448  0.14128026     1.02700
O582        O  0.33823465  0.14034465  0.19011907    -0.85200
O583        O  0.37854655  0.16785377  0.18414590    -0.82300
C584        C  0.37040834  0.18902918  0.18084941     0.98200
O585        O  0.36016729  0.19473759  0.16132006    -0.82300
O586        O  0.33282050  0.18985436  0.12012523    -0.84900
C587        C  0.31220676  0.18618919  0.12936998     1.02700
O588        O  0.30743810  0.16616692  0.13901886    -0.77700
O589        O  0.31329152  0.12408313  0.16403499    -0.77900
C590        C  0.31809315  0.13092267  0.18539805     1.02700
Cr591      Cr  0.36714655  0.13636206  0.16973749     1.93700
Cr592      Cr  0.36477595  0.17628643  0.13121858     1.93200
Cr593      Cr  0.32617306  0.13659696  0.13228538     1.39100
O594        O  0.35276094  0.14964351  0.14439883    -1.23000
O595        O  0.39910509  0.34744059  0.36407809    -0.85200
O596        O  0.36141559  0.33639089  0.39474706    -0.82300
C597        C  0.35680390  0.35625512  0.40525172     0.98200
O598        O  0.34706438  0.37331456  0.39370386    -0.82300
O599        O  0.33506298  0.40225638  0.35522251    -0.85000
C600        C  0.35465856  0.41244079  0.34911560     1.02800
O601        O  0.37120058  0.40051321  0.33895950    -0.77700
O602        O  0.39933421  0.36143501  0.32707355    -0.77900
C603        C  0.41040221  0.35671066  0.34655257     1.02700
O604        O  0.37842347  0.31710549  0.32694644    -0.85200
O605        O  0.33866966  0.31018411  0.35542846    -0.82300
C606        C  0.31887822  0.31490781  0.36564706     0.98200
O607        O  0.31593123  0.33541195  0.37549878    -0.82300
O608        O  0.30771918  0.36236496  0.33522768    -0.84900
C609        C  0.31165351  0.37188546  0.31496635     1.02700
O610        O  0.33197122  0.38151524  0.31072887    -0.77700
O611        O  0.35810492  0.34059837  0.30258823    -0.77900
C612        C  0.36815316  0.32064212  0.30676310     1.02700
Cr613      Cr  0.36838075  0.32969886  0.35959426     1.93700
Cr614      Cr  0.32834887  0.36758393  0.36381223     1.93200
Cr615      Cr  0.36444563  0.36995724  0.32184509     1.39100
O616        O  0.35386313  0.35589382  0.34856202    -1.23000
O617        O  0.10468857  0.62915836  0.15573260    -0.85200
O618        O  0.14424962  0.60053259  0.16481899    -0.82300
C619        C  0.15009367  0.59102297  0.14480562     0.98200
O620        O  0.15873688  0.60370163  0.12796439    -0.82300
O621        O  0.16780721  0.64385230  0.10006614    -0.85000
C622        C  0.14794106  0.64978052  0.09026146     1.02800
O623        O  0.13080771  0.65789278  0.10287600    -0.77700
O624        O  0.10227161  0.66659818  0.14266897    -0.77900
C625        C  0.09234212  0.64663697  0.14799010     1.02700
O626        O  0.12363245  0.66623239  0.18681282    -0.85200
O627        O  0.16481547  0.63979726  0.19231665    -0.82300
C628        C  0.18486303  0.63032431  0.18733841     0.98200
O629        O  0.18893330  0.62260927  0.16612704    -0.82300
O630        O  0.19429375  0.66433511  0.14035232    -0.84900
C631        C  0.18935067  0.68453653  0.13115565     1.02700
O632        O  0.16845909  0.68807134  0.12245049    -0.77700
O633        O  0.14232102  0.69258525  0.16398814    -0.77900
C634        C  0.13298827  0.68689850  0.18393135     1.02700
Cr635      Cr  0.13538906  0.63481635  0.17289221     1.93700
Cr636      Cr  0.17541599  0.63460500  0.13447769     1.93200
Cr637      Cr  0.13677508  0.67425244  0.13396145     1.39100
O638        O  0.14903951  0.64770150  0.14693857    -1.23000
O639        O  0.33479647  0.60423249  0.35709726    -0.85200
O640        O  0.34467802  0.63286356  0.39651140    -0.82300
C641        C  0.35324269  0.65001199  0.40885442     0.98200
O642        O  0.35974692  0.66957688  0.39881967    -0.82300
O643        O  0.39908453  0.65982602  0.36984714    -0.85000
C644        C  0.41125651  0.65147470  0.35251007     1.02800
O645        O  0.40107419  0.64517390  0.33295400    -0.77700
O646        O  0.37208335  0.60582370  0.34366214    -0.77900
C647        C  0.35470285  0.59391295  0.35239573     1.02700
O648        O  0.30883616  0.64415034  0.33583038    -0.85200
O649        O  0.31501059  0.67067964  0.37731419    -0.82300
C650        C  0.31905097  0.69160791  0.36909838     0.98200
O651        O  0.33889288  0.69621652  0.35899767    -0.82300
O652        O  0.37945471  0.68965099  0.33209615    -0.84900
C653        C  0.37002427  0.68594770  0.31158577     1.02700
O654        O  0.36097037  0.66568935  0.30645856    -0.77700
O655        O  0.33453589  0.62453689  0.31296748    -0.77900
C656        C  0.31366004  0.63326316  0.31640100     1.02700
Cr657      Cr  0.32785922  0.63881201  0.36564792     1.93700
Cr658      Cr  0.36826136  0.67675740  0.36412402     1.93200
Cr659      Cr  0.36639728  0.63635775  0.32601375     1.39100
O660        O  0.35434989  0.65051323  0.35210880    -1.23000
O661        O  0.13135850  0.84478460  0.39566631    -0.85200
O662        O  0.10328586  0.83420548  0.35589468    -0.82300
C663        C  0.09264063  0.85357756  0.34981918     0.98200
O664        O  0.10448274  0.87113855  0.34131968    -0.82300
O665        O  0.14351773  0.90077857  0.33176032    -0.85000
C666        C  0.14753029  0.91111753  0.35178861     1.02800
O667        O  0.15597232  0.89910086  0.36920552    -0.77700
O668        O  0.16765507  0.86045848  0.39796913    -0.77900
C669        C  0.14787653  0.85465077  0.40790114     1.02700
O670        O  0.17013203  0.81580539  0.37645601    -0.85200
O671        O  0.14389296  0.80868800  0.33523078    -0.82300
C672        C  0.13380175  0.81316641  0.31529413     0.98200
O673        O  0.12505759  0.83393907  0.31156267    -0.82300
O674        O  0.16598189  0.86144907  0.30593593    -0.84900
C675        C  0.18540382  0.87222186  0.31117781     1.02700
O676        O  0.18783983  0.88147510  0.33196236    -0.77700
O677        O  0.19561433  0.84077796  0.35900906    -0.77900
C678        C  0.19114514  0.82072485  0.36882237     1.02700
Cr679      Cr  0.13797698  0.82790495  0.36479593     1.93700
Cr680      Cr  0.13578990  0.86602541  0.32465232     1.93200
Cr681      Cr  0.17481738  0.86935385  0.36362758     1.39100
O682        O  0.14943230  0.85444345  0.35113941    -1.23000
O683        O  0.39843935  0.87405615  0.15567059    -0.85200
O684        O  0.35843163  0.90215441  0.16444261    -0.82300
C685        C  0.35390371  0.91159055  0.14405932     0.98200
O686        O  0.34534362  0.89891583  0.12715323    -0.82300
O687        O  0.33628901  0.85871693  0.09939215    -0.85000
C688        C  0.35629073  0.85287801  0.08988916     1.02800
O689        O  0.37326149  0.84460174  0.10262018    -0.77700
O690        O  0.40135794  0.83656638  0.14294818    -0.77900
C691        C  0.41100014  0.85686870  0.14753360     1.02700
O692        O  0.37968765  0.83684618  0.18679767    -0.85200
O693        O  0.33800677  0.86263181  0.19157357    -0.82300
C694        C  0.31786695  0.87150479  0.18586681     0.98200
O695        O  0.31456146  0.88030466  0.16499199    -0.82300
O696        O  0.30915617  0.83844902  0.13921316    -0.84900
C697        C  0.31442379  0.81831454  0.12990513     1.02700
O698        O  0.33559611  0.81459388  0.12208800    -0.77700
O699        O  0.36138032  0.81029551  0.16401432    -0.77900
C700        C  0.37085766  0.81594161  0.18395658     1.02700
Cr701      Cr  0.36766060  0.86804673  0.17263676     1.93700
Cr702      Cr  0.32831886  0.86813661  0.13359325     1.93200
Cr703      Cr  0.36705325  0.82851387  0.13387172     1.39100
O704        O  0.35446689  0.85502765  0.14652593    -1.23000
C705        C  0.27313814  0.85334656  0.23469719    -0.22300
C706        C  0.26084482  0.87516847  0.23835164     0.09600
C707        C  0.26722843  0.89575997  0.22472805     0.10000
C708        C  0.28581864  0.89398048  0.20752301    -0.17300
C709        C  0.29820774  0.87211666  0.20384450    -0.27700
C710        C  0.29154326  0.85139034  0.21740087     0.18400
C711        C  0.24112040  0.87573291  0.25640757     0.12300
C712        C  0.25438502  0.91949895  0.22833576    -0.12000
H713        H  0.29091292  0.90978438  0.19708893     0.12600
C714        C  0.30248512  0.82666522  0.21351296    -0.22900
H715        H  0.26794320  0.83755092  0.24510718     0.08200
C716        C  0.21775946  0.86735725  0.25073065     0.04600
C717        C  0.19998285  0.86689930  0.26882806    -0.20100
C718        C  0.20502221  0.87435002  0.29270393    -0.12400
C719        C  0.22874896  0.88273815  0.29825320     0.13300
C720        C  0.24633849  0.88343085  0.27992740    -0.22800
C721        C  0.21167563  0.85874052  0.22557731    -0.05900
H722        H  0.18208257  0.86039756  0.26424428     0.14800
C723        C  0.23620006  0.89039234  0.32337937    -0.16100
H724        H  0.26450757  0.88957278  0.28403213     0.09100
H725        H  0.28787593  0.81347705  0.20946375     0.07000
H726        H  0.31200120  0.82083201  0.23021317     0.08200
H727        H  0.31533831  0.82583178  0.19820664     0.07200
H728        H  0.25678542  0.92571648  0.24728994     0.02100
H729        H  0.23480085  0.91723935  0.22455349     0.02600
H730        H  0.26153660  0.93375925  0.21612246     0.06100
H731        H  0.19250801  0.85292875  0.22410851     0.05100
H732        H  0.22327800  0.84309135  0.22071727    -0.00700
H733        H  0.21475842  0.87357686  0.21240208     0.00800
H734        H  0.25556432  0.89567514  0.32419684     0.04500
H735        H  0.23358598  0.87517415  0.33622530     0.06400
H736        H  0.22545648  0.90631775  0.32919928     0.07300
C737        C  0.34983353  0.73083362  0.26378355    -0.22300
C738        C  0.37176313  0.74225099  0.25832024     0.09600
C739        C  0.39297734  0.73559209  0.27082819     0.10000
C740        C  0.39183053  0.71724191  0.28832353    -0.17300
C741        C  0.36997154  0.70541630  0.29343443    -0.27700
C742        C  0.34857177  0.71263256  0.28134647     0.18400
C743        C  0.37201958  0.76098927  0.23923209     0.12300
C744        C  0.41686447  0.74749558  0.26538692    -0.12000
H745        H  0.40810891  0.71183273  0.29779487     0.12600
C746        C  0.32395581  0.70238191  0.28707017    -0.22900
H747        H  0.33352268  0.73636563  0.25441948     0.08200
C748        C  0.37018847  0.75473921  0.21458759     0.04600
C749        C  0.37024359  0.77307250  0.19711357    -0.20100
C750        C  0.37203391  0.79762301  0.20360722    -0.12400
C751        C  0.37377175  0.80382408  0.22850588     0.13300
C752        C  0.37372002  0.78535295  0.24594972    -0.22800
C753        C  0.36839194  0.72869702  0.20668831    -0.05900
H754        H  0.36888407  0.76811121  0.17818727     0.14800
C755        C  0.37493944  0.82969441  0.23708785    -0.16100
H756        H  0.37481974  0.78989064  0.26500344     0.09100
H757        H  0.31674095  0.69278768  0.27095154     0.07000
H758        H  0.31142641  0.71733767  0.29183943     0.08200
H759        H  0.32404507  0.68976110  0.30259017     0.07200
H760        H  0.41582104  0.76712172  0.26947947     0.02100
H761        H  0.42141467  0.74498741  0.24597832     0.02600
H762        H  0.43173989  0.73967923  0.27638447     0.06100
H763        H  0.36775194  0.72697895  0.18667322     0.05100
H764        H  0.35168228  0.72041363  0.21408821    -0.00700
H765        H  0.38435233  0.71849491  0.21332952     0.00800
H766        H  0.37516988  0.83093839  0.25714999     0.04500
H767        H  0.35885968  0.83976924  0.23057105     0.06400
H768        H  0.39171279  0.83842366  0.23037344     0.07300
C769        C  0.25092131  0.78932196  0.38161302    -0.22300
C770        C  0.24621455  0.76636750  0.37194853     0.09600
C771        C  0.22336133  0.76123947  0.36188415     0.10000
C772        C  0.20562715  0.77930885  0.36166899    -0.17300
C773        C  0.21034997  0.80244123  0.37099519    -0.27700
C774        C  0.23323439  0.80749959  0.38134761     0.18400
C775        C  0.26562807  0.74804591  0.37189812     0.12300
C776        C  0.21790535  0.73687120  0.35093218    -0.12000
H777        H  0.18812558  0.77554871  0.35364266     0.12600
C778        C  0.23945819  0.83143774  0.39287286    -0.22900
H779        H  0.26853145  0.79305285  0.38942345     0.08200
C780        C  0.28329124  0.74770189  0.35355595     0.04600
C781        C  0.30062421  0.72925609  0.35343027    -0.20100
C782        C  0.30054117  0.71089824  0.37104414    -0.12400
C783        C  0.28289017  0.71151120  0.38968342     0.13300
C784        C  0.26572151  0.73020903  0.38986408    -0.22800
C785        C  0.28349727  0.76652045  0.33384273    -0.05900
H786        H  0.31402007  0.72890219  0.33911285     0.14800
C787        C  0.28215375  0.69293440  0.40964482    -0.16100
H788        H  0.25200693  0.73076952  0.40389083     0.09100
H789        H  0.25461610  0.83996958  0.38283636     0.07000
H790        H  0.24517895  0.82840458  0.41189510     0.08200
H791        H  0.22411328  0.84427260  0.39332480     0.07200
H792        H  0.21962114  0.72258967  0.36493373     0.02100
H793        H  0.23079314  0.73308190  0.33600020     0.02600
H794        H  0.19928795  0.73605989  0.34343420     0.06100
H795        H  0.29838479  0.76342084  0.32071205     0.05100
H796        H  0.28595500  0.78476045  0.34188578    -0.00700
H797        H  0.26612583  0.76600487  0.32378499     0.00800
H798        H  0.26810772  0.69724541  0.42334947     0.04500
H799        H  0.29988411  0.69229025  0.41905490     0.06400
H800        H  0.27775657  0.67486772  0.40207458     0.07300
C801        C  0.24658338  0.72237828  0.14172703    -0.22300
C802        C  0.24143938  0.74298262  0.12801866     0.09600
C803        C  0.21951950  0.74437312  0.11512987     0.10000
C804        C  0.20307421  0.72500989  0.11634070    -0.17300
C805        C  0.20799116  0.70414909  0.13018641    -0.27700
C806        C  0.23022016  0.70299554  0.14316545     0.18400
C807        C  0.25930991  0.76298229  0.12787222     0.12300
C808        C  0.21350990  0.76633001  0.10016429    -0.12000
H809        H  0.18625277  0.72627378  0.10638370     0.12600
C810        C  0.23695357  0.68185147  0.15904940    -0.22900
H811        H  0.26349850  0.72163474  0.15160230     0.08200
C812        C  0.25889168  0.78126183  0.14565808     0.04600
C813        C  0.27687050  0.79918455  0.14554453    -0.20100
C814        C  0.29562793  0.79907331  0.12832730    -0.12400
C815        C  0.29592438  0.78061653  0.11042159     0.13300
C816        C  0.27767185  0.76289671  0.11043268    -0.22800
C817        C  0.23966284  0.78160080  0.16497241    -0.05900
H818        H  0.27654820  0.81309094  0.15939415     0.14800
C819        C  0.31501790  0.77957602  0.09097390    -0.16100
H820        H  0.27784307  0.74865754  0.09692389     0.09100
H821        H  0.22310763  0.67936997  0.17338289     0.07000
H822        H  0.25460943  0.68462490  0.16822413     0.08200
H823        H  0.23857940  0.66518108  0.14796916     0.07200
H824        H  0.22742140  0.76882407  0.08590137     0.02100
H825        H  0.21308033  0.78265752  0.11185388     0.02600
H826        H  0.19561488  0.76457145  0.09121532     0.06100
H827        H  0.24197380  0.79712352  0.17753979     0.05100
H828        H  0.24055132  0.76467983  0.17574498    -0.00700
H829        H  0.22152495  0.78305104  0.15651365     0.00800
H830        H  0.33299247  0.77605082  0.09915783     0.04500
H831        H  0.31539095  0.79690963  0.08083622     0.06400
H832        H  0.31146802  0.76482950  0.07777984     0.07300
C833        C  0.11945450  0.77787698  0.25729462    -0.22300
C834        C  0.13083957  0.75585101  0.26218122     0.09600
C835        C  0.14275692  0.75243627  0.28441966     0.10000
C836        C  0.14306716  0.77132034  0.30136875    -0.17300
C837        C  0.13194831  0.79377032  0.29656818    -0.27700
C838        C  0.11985919  0.79696355  0.27403990     0.18400
C839        C  0.13127836  0.73726100  0.24296179     0.12300
C840        C  0.15513684  0.72886856  0.29024725    -0.12000
H841        H  0.15238631  0.76851047  0.31837918     0.12600
C842        C  0.10752240  0.82026497  0.26703818    -0.22900
H843        H  0.11055458  0.78024351  0.23996760     0.08200
C844        C  0.11092942  0.72277519  0.23778582     0.04600
C845        C  0.11195415  0.70639379  0.21840509    -0.20100
C846        C  0.13277781  0.70449080  0.20399086    -0.12400
C847        C  0.15333137  0.71873338  0.20954236     0.13300
C848        C  0.15225744  0.73499191  0.22897248    -0.22800
C849        C  0.08827367  0.72449920  0.25280469    -0.05900
H850        H  0.09635802  0.69525399  0.21428843     0.14800
C851        C  0.17670104  0.71638050  0.19562475    -0.16100
H852        H  0.16778314  0.74617905  0.23320507     0.09100
H853        H  0.09902245  0.81910269  0.24885894     0.07000
H854        H  0.12093231  0.83519932  0.26639054     0.08200
H855        H  0.09297175  0.82454803  0.28018931     0.07200
H856        H  0.16982113  0.72539302  0.27701136     0.02100
H857        H  0.14182920  0.71384741  0.28943430     0.02600
H858        H  0.16327004  0.72906700  0.30862531     0.06100
H859        H  0.07419583  0.71161061  0.24651833     0.05100
H860        H  0.08069646  0.74304907  0.25164843    -0.00700
H861        H  0.09253483  0.72029232  0.27198020     0.00800
H862        H  0.17410263  0.72232848  0.17663147     0.04500
H863        H  0.18292259  0.69727862  0.19591572     0.06400
H864        H  0.19126696  0.72773090  0.20354566     0.07300
C865        C  0.21747658  0.62732174  0.24818673    -0.22300
C866        C  0.24162536  0.62861187  0.24076529     0.09600
C867        C  0.24718602  0.62897336  0.21588627     0.10000
C868        C  0.22829367  0.62884736  0.19890310    -0.17300
C869        C  0.20392610  0.62856417  0.20623225    -0.27700
C870        C  0.19850940  0.62729673  0.23132314     0.18400
C871        C  0.26061865  0.63005640  0.25960289     0.12300
C872        C  0.27300441  0.62996070  0.20730712    -0.12000
H873        H  0.23261089  0.62960242  0.17980038     0.12600
C874        C  0.17295426  0.62536562  0.24065402    -0.22900
H875        H  0.21348945  0.62666814  0.26737911     0.08200
C876        C  0.26519913  0.65184232  0.27208685     0.04600
C877        C  0.28203547  0.65201547  0.29106045    -0.20100
C878        C  0.29495250  0.63109479  0.29739752    -0.12400
C879        C  0.29017031  0.60916932  0.28493625     0.13300
C880        C  0.27313096  0.60902259  0.26610272    -0.22800
C881        C  0.25260947  0.67497965  0.26510330    -0.05900
H882        H  0.28541953  0.66870977  0.30075075     0.14800
C883        C  0.30165218  0.58536670  0.29162408    -0.16100
H884        H  0.26917949  0.59223191  0.25672940     0.09100
H885        H  0.16284931  0.64224583  0.23673777     0.07000
H886        H  0.17245432  0.62264499  0.26056305     0.08200
H887        H  0.16375210  0.60968315  0.23209854     0.07200
H888        H  0.28290306  0.61372037  0.21372353     0.02100
H889        H  0.28192620  0.64644369  0.21453930     0.02600
H890        H  0.27417525  0.63046650  0.18724732     0.06100
H891        H  0.25870599  0.69047899  0.27636377     0.05100
H892        H  0.23278660  0.67299085  0.26747073    -0.00700
H893        H  0.25657670  0.67927647  0.24588068     0.00800
H894        H  0.28729403  0.57196459  0.29584614     0.04500
H895        H  0.31346418  0.58652115  0.30769120     0.06400
H896        H  0.31251137  0.57855255  0.27616625     0.07300
C897        C  0.37858172  0.52991224  0.36200469    -0.22300
C898        C  0.35839425  0.51638185  0.35483464     0.09600
C899        C  0.33692924  0.52827395  0.34805084     0.10000
C900        C  0.33614057  0.55356824  0.34849490    -0.17300
C901        C  0.35650022  0.56734707  0.35499238    -0.27700
C902        C  0.37789883  0.55531063  0.36240628     0.18400
C903        C  0.35993828  0.48970879  0.35430895     0.12300
C904        C  0.31505980  0.51426835  0.33972152    -0.12000
H905        H  0.31966771  0.56263076  0.34304751     0.12600
C906        C  0.39999565  0.56835387  0.37168632    -0.22900
H907        H  0.39491770  0.52056644  0.36748089     0.08200
C908        C  0.36915185  0.47742430  0.33396152     0.04600
C909        C  0.36803813  0.45209564  0.33321416    -0.20100
C910        C  0.35745857  0.43886217  0.35216314    -0.12400
C911        C  0.34903123  0.45122455  0.37296623     0.13300
C912        C  0.35046498  0.47656160  0.37377974    -0.22800
C913        C  0.37943890  0.49111655  0.31276455    -0.05900
H914        H  0.37458948  0.44264511  0.31732798     0.14800
C915        C  0.33894407  0.43789007  0.39451397    -0.16100
H916        H  0.34360724  0.48625349  0.38938652     0.09100
H917        H  0.41533018  0.56540683  0.35906148     0.07000
H918        H  0.40496830  0.56102651  0.38971881     0.08200
H919        H  0.39726368  0.58802599  0.37411797     0.07200
H920        H  0.30869801  0.50217167  0.35442343     0.02100
H921        H  0.31979546  0.50319961  0.32363216     0.02600
H922        H  0.29990304  0.52642739  0.33464832     0.06100
H923        H  0.38566641  0.47874259  0.29820534     0.05100
H924        H  0.39512156  0.50212285  0.31877657    -0.00700
H925        H  0.36543024  0.50326132  0.30506220     0.00800
H926        H  0.33467405  0.45038925  0.40966452     0.04500
H927        H  0.35239561  0.42454398  0.40114782     0.06400
H928        H  0.32195978  0.42845602  0.38952719     0.07300
C929        C  0.33593023  0.02691874  0.12891904    -0.22300
C930        C  0.35775471  0.01561766  0.13490489     0.09600
C931        C  0.37793968  0.02978311  0.14141508     0.10000
C932        C  0.37550281  0.05503687  0.14281321    -0.17300
C933        C  0.35334949  0.06638329  0.13776953    -0.27700
C934        C  0.33327680  0.05208449  0.13057246     0.18400
C935        C  0.35794990  0.98895505  0.13734280     0.12300
C936        C  0.40182145  0.01816583  0.14737775    -0.12000
H937        H  0.39087014  0.06598079  0.14818704     0.12600
C938        C  0.30835503  0.06222577  0.12605009    -0.22900
H939        H  0.32041765  0.01585177  0.12421874     0.08200
C940        C  0.34993303  0.97796298  0.15890618     0.04600
C941        C  0.34946323  0.95271077  0.16054208    -0.20100
C942        C  0.35664583  0.93804791  0.14107375    -0.12400
C943        C  0.36530803  0.94911545  0.11957507     0.13300
C944        C  0.36558053  0.97451237  0.11794221    -0.22800
C945        C  0.34161431  0.99292231  0.18015059    -0.05900
H946        H  0.34282607  0.94434346  0.17699173     0.14800
C947        C  0.37519780  0.93502244  0.09839096    -0.16100
H948        H  0.37195043  0.98311733  0.10151215     0.09100
H949        H  0.29515210  0.05302804  0.13807776     0.07000
H950        H  0.30311695  0.05882871  0.10695073     0.08200
H951        H  0.30678749  0.08181827  0.12968707     0.07200
H952        H  0.40838972  0.00775220  0.13150104     0.02100
H953        H  0.39966215  0.00572916  0.16299256     0.02600
H954        H  0.41575770  0.03184084  0.15212989     0.06100
H955        H  0.33605947  0.98143395  0.19566689     0.05100
H956        H  0.32586635  0.00416138  0.17482058    -0.00700
H957        H  0.35651029  0.00490666  0.18629514     0.00800
H958        H  0.36355772  0.93797136  0.08229005     0.04500
H959        H  0.37660271  0.91536022  0.10180423     0.06400
H960        H  0.39374318  0.94148501  0.09419864     0.07300
C961        C  0.38416894  0.24734222  0.21424264    -0.22300
C962        C  0.37125734  0.24364843  0.23573501     0.09600
C963        C  0.35937301  0.22142067  0.23971657     0.10000
C964        C  0.36041191  0.20338578  0.22185806    -0.17300
C965        C  0.37273691  0.20732810  0.20003635    -0.27700
C966        C  0.38518007  0.22938120  0.19633816     0.18400
C967        C  0.37061397  0.26329748  0.25391145     0.12300
C968        C  0.34526442  0.21694726  0.26259157    -0.12000
H969        H  0.35085811  0.18647531  0.22454978     0.12600
C970        C  0.40008231  0.23437031  0.17404751    -0.22900
H971        H  0.39354810  0.26433565  0.21146099     0.08200
C972        C  0.38864108  0.26536898  0.27177755     0.04600
C973        C  0.38733198  0.28425793  0.28867559    -0.20100
C974        C  0.36857344  0.30142315  0.28793348    -0.12400
C975        C  0.35047197  0.29930236  0.26977716     0.13300
C976        C  0.35177140  0.28017863  0.25305808    -0.22800
C977        C  0.40929820  0.24765164  0.27291614    -0.05900
H978        H  0.40123451  0.28574100  0.30241091     0.14800
C979        C  0.32940451  0.31658626  0.26808449    -0.16100
H980        H  0.33802528  0.27832649  0.23919933     0.09100
H981        H  0.41895893  0.23857899  0.17946966     0.07000
H982        H  0.39247807  0.25016297  0.16426111     0.08200
H983        H  0.40079323  0.21881453  0.16141382     0.07200
H984        H  0.33046993  0.23042487  0.26416686     0.02100
H985        H  0.35736410  0.21859222  0.27852993     0.02600
H986        H  0.33708092  0.19859514  0.26280292     0.06100
H987        H  0.42183856  0.25180209  0.28805596     0.05100
H988        H  0.41973900  0.24831444  0.25577199    -0.00700
H989        H  0.40221406  0.22905600  0.27558202     0.00800
H990        H  0.33594821  0.33504568  0.26368592     0.04500
H991        H  0.31935430  0.31691234  0.28546188     0.06400
H992        H  0.31647443  0.31124130  0.25365475     0.07300
C993        C  0.13857774  0.47696669  0.16385056    -0.22300
C994        C  0.13913182  0.48739482  0.14076364     0.09600
C995        C  0.13989274  0.47233129  0.12013928     0.10000
C996        C  0.14090096  0.44710727  0.12318992    -0.17300
C997        C  0.14069350  0.43669990  0.14635058    -0.27700
C998        C  0.13915794  0.45183404  0.16695385     0.18400
C999        C  0.14073270  0.51410924  0.13904068     0.12300
C1000       C  0.13947746  0.48286462  0.09502403    -0.12000
H1001       H  0.14201042  0.43542460  0.10744238     0.12600
C1002       C  0.13898797  0.44233831  0.19249969    -0.22900
H1003       H  0.13825115  0.48860627  0.17965755     0.08200
C1004       C  0.12115922  0.52917677  0.14546209     0.04600
C1005       C  0.12469264  0.55429866  0.14673219    -0.20100
C1006       C  0.14729372  0.56467918  0.14162807    -0.12400
C1007       C  0.16679759  0.54955567  0.13473912     0.13300
C1008       C  0.16313417  0.52449411  0.13335698    -0.22800
C1009       C  0.09658565  0.51874815  0.15088715    -0.05900
H1010       H  0.10977702  0.56592867  0.15193132     0.14800
C1011       C  0.19205184  0.55880916  0.13015146    -0.16100
H1012       H  0.17824243  0.51279985  0.12884974     0.09100
H1013       H  0.12209206  0.44812028  0.20166587     0.07000
H1014       H  0.15463016  0.44992959  0.20255510     0.08200
H1015       H  0.14002046  0.42238853  0.19351910     0.07200
H1016       H  0.15559764  0.49445269  0.09213958     0.02100
H1017       H  0.12288510  0.49391233  0.09263961     0.02600
H1018       H  0.13953163  0.46851498  0.08094209     0.06100
H1019       H  0.08314583  0.53312736  0.15489524     0.05100
H1020       H  0.09756744  0.50663141  0.16684690    -0.00700
H1021       H  0.09005071  0.50829071  0.13501925     0.00800
H1022       H  0.20490445  0.54942659  0.14240555     0.04500
H1023       H  0.19418867  0.57842772  0.13340965     0.06400
H1024       H  0.19724015  0.55491705  0.11113578     0.07300
C1025       C  0.22444622  0.39046523  0.23622316    -0.22300
C1026       C  0.24151217  0.37184932  0.23733008     0.09600
C1027       C  0.24126988  0.35334495  0.21976018     0.10000
C1028       C  0.22353326  0.35369859  0.20161990    -0.17300
C1029       C  0.20599759  0.37209397  0.20069542    -0.27700
C1030       C  0.20677421  0.39097185  0.21806931     0.18400
C1031       C  0.25940456  0.37216086  0.25718651     0.12300
C1032       C  0.25981535  0.33338653  0.22007168    -0.12000
H1033       H  0.22306719  0.33921807  0.18838684     0.12600
C1034       C  0.18957256  0.41205614  0.21735482    -0.22900
H1035       H  0.22495810  0.40466712  0.24977369     0.08200
C1036       C  0.27892016  0.38852721  0.25719082     0.04600
C1037       C  0.29527741  0.38828479  0.27653244    -0.20100
C1038       C  0.29265526  0.37204081  0.29595574    -0.12400
C1039       C  0.27284782  0.35562193  0.29587846     0.13300
C1040       C  0.25646140  0.35605990  0.27649403    -0.22800
C1041       C  0.28274942  0.40592682  0.23655722    -0.05900
H1042       H  0.31031859  0.40086075  0.27635537     0.14800
C1043       C  0.26897468  0.33712627  0.31559844    -0.16100
H1044       H  0.24126164  0.34367679  0.27626900     0.09100
H1045       H  0.19421033  0.42600073  0.23107591     0.07000
H1046       H  0.17094254  0.40579647  0.22130356     0.08200
H1047       H  0.19030182  0.42076405  0.19926591     0.07200
H1048       H  0.25823259  0.32282019  0.23706291     0.02100
H1049       H  0.27824816  0.34126394  0.21888164     0.02600
H1050       H  0.25739709  0.32072773  0.20463908     0.06100
H1051       H  0.29930401  0.41701428  0.23912468     0.05100
H1052       H  0.26713891  0.41844382  0.23514197    -0.00700
H1053       H  0.28465172  0.39571876  0.21935287     0.00800
H1054       H  0.25312465  0.32535656  0.31185502     0.04500
H1055       H  0.26556684  0.34633545  0.33312101     0.06400
H1056       H  0.28506964  0.32522674  0.31711339     0.07300
C1057       C  0.24440007  0.28372345  0.12346189    -0.22300
C1058       C  0.23767636  0.25931451  0.12306482     0.09600
C1059       C  0.21295265  0.25307129  0.12325331     0.10000
C1060       C  0.19546976  0.27146238  0.12419044    -0.17300
C1061       C  0.20205921  0.29605357  0.12492664    -0.27700
C1062       C  0.22699804  0.30220884  0.12438980     0.18400
C1063       C  0.25689614  0.24063387  0.12414151     0.12300
C1064       C  0.20501012  0.22700329  0.12239273    -0.12000
H1065       H  0.17650740  0.26655186  0.12448952     0.12600
C1066       C  0.23567434  0.32802458  0.12585211    -0.22900
H1067       H  0.26346064  0.28827959  0.12362442     0.08200
C1068       C  0.27174748  0.23529185  0.10406264     0.04600
C1069       C  0.29000415  0.21777908  0.10639920    -0.20100
C1070       C  0.29332444  0.20509695  0.12816133    -0.12400
C1071       C  0.27851269  0.21064044  0.14831954     0.13300
C1072       C  0.26063580  0.22848854  0.14606669    -0.22800
C1073       C  0.26799891  0.24766139  0.08008062    -0.05900
H1074       H  0.30141473  0.21362741  0.09101570     0.14800
C1075       C  0.28191378  0.19840634  0.17247355    -0.16100
H1076       H  0.24941801  0.23302325  0.16150003     0.09100
H1077       H  0.22947773  0.33829589  0.10976555     0.07000
H1078       H  0.25571761  0.32918212  0.12632781     0.08200
H1079       H  0.22874139  0.33660905  0.14260653     0.07200
H1080       H  0.21169421  0.21723009  0.13859386     0.02100
H1081       H  0.21233185  0.21823970  0.10586177     0.02600
H1082       H  0.18500404  0.22531697  0.12201976     0.06100
H1083       H  0.28078444  0.24089862  0.06613028     0.05100
H1084       H  0.27084725  0.26743185  0.08204508    -0.00700
H1085       H  0.24930709  0.24426083  0.07357867     0.00800
H1086       H  0.26973490  0.20605032  0.18650934     0.04500
H1087       H  0.30084131  0.20080599  0.17874922     0.06400
H1088       H  0.27774690  0.17885279  0.17091622     0.07300
C1089       C  0.12885115  0.02954656  0.36816606    -0.22300
C1090       C  0.14666159  0.01515285  0.35737284     0.09600
C1091       C  0.16645733  0.02608511  0.34558442     0.10000
C1092       C  0.16805622  0.05136607  0.34491245    -0.17300
C1093       C  0.14999989  0.06588870  0.35525664    -0.27700
C1094       C  0.13030872  0.05487211  0.36738495     0.18400
C1095       C  0.14418722  0.98858689  0.35807691     0.12300
C1096       C  0.18552735  0.01105959  0.33316510    -0.12000
H1097       H  0.18302578  0.05985130  0.33552788     0.12600
C1098       C  0.11091532  0.06910412  0.38024445    -0.22900
H1099       H  0.11378950  0.02095926  0.37731203     0.08200
C1100       C  0.15596510  0.97468791  0.37583380     0.04600
C1101       C  0.15596458  0.94943176  0.37375153    -0.20100
C1102       C  0.14430257  0.93770472  0.35434359    -0.12400
C1103       C  0.13090566  0.95183282  0.33755325     0.13300
C1104       C  0.13119279  0.97712872  0.33963958    -0.22800
C1105       C  0.16877144  0.98656329  0.39677759    -0.05900
H1106       H  0.16580902  0.93890292  0.38701292     0.14800
C1107       C  0.11616481  0.94070492  0.31745215    -0.16100
H1108       H  0.12182679  0.98813636  0.32638263     0.09100
H1109       H  0.10994012  0.06322461  0.39943113     0.07000
H1110       H  0.09317159  0.06566434  0.37149603     0.08200
H1111       H  0.11427893  0.08885038  0.38034012     0.07200
H1112       H  0.17704802  0.99983770  0.31881237     0.02100
H1113       H  0.19452245  0.99901778  0.34645591     0.02600
H1114       H  0.19962660  0.02251751  0.32460103     0.06100
H1115       H  0.17694627  0.97302573  0.40915846     0.05100
H1116       H  0.15568122  0.99755676  0.40731831    -0.00700
H1117       H  0.18342179  0.99850583  0.39004299     0.00800
H1118       H  0.10551163  0.95452059  0.30749542     0.04500
H1119       H  0.10321755  0.92737188  0.32507531     0.06400
H1120       H  0.12819679  0.93179037  0.30409540     0.07300
C1121       C  0.23660046  0.23067215  0.38853967    -0.22300
C1122       C  0.23883939  0.24636653  0.36873072     0.09600
C1123       C  0.22204650  0.24472443  0.34953170     0.10000
C1124       C  0.20392739  0.22688541  0.35023062    -0.17300
C1125       C  0.20211929  0.21059763  0.36968981    -0.27700
C1126       C  0.21831739  0.21300117  0.38942853     0.18400
C1127       C  0.25923143  0.26398664  0.36827452     0.12300
C1128       C  0.22306342  0.26193515  0.32841524    -0.12000
H1129       H  0.19143546  0.22529808  0.33519492     0.12600
C1130       C  0.21606013  0.19758717  0.41182917    -0.22900
H1131       H  0.24939769  0.23214368  0.40330393     0.08200
C1132       C  0.25993911  0.28425017  0.38379758     0.04600
C1133       C  0.27967866  0.30024363  0.38265372    -0.20100
C1134       C  0.29897546  0.29655670  0.36641872    -0.12400
C1135       C  0.29808126  0.27612692  0.35073696     0.13300
C1136       C  0.27832721  0.26014861  0.35207050    -0.22800
C1137       C  0.23965274  0.28927844  0.40128453    -0.05900
H1138       H  0.27996648  0.31578473  0.39461027     0.14800
C1139       C  0.31737400  0.27110942  0.33209029    -0.16100
H1140       H  0.27768405  0.24445756  0.34027752     0.09100
H1141       H  0.19749009  0.19914649  0.41932604     0.07000
H1142       H  0.22894852  0.20332457  0.42613760     0.08200
H1143       H  0.22002444  0.17840229  0.40751176     0.07200
H1144       H  0.24036330  0.25972387  0.31851143     0.02100
H1145       H  0.22158539  0.28084697  0.33503864     0.02600
H1146       H  0.20809503  0.25866133  0.31541484     0.06100
H1147       H  0.24264146  0.30634177  0.41147838     0.05100
H1148       H  0.23819896  0.27436350  0.41462247    -0.00700
H1149       H  0.22233763  0.29093140  0.39125657     0.00800
H1150       H  0.33492722  0.26755505  0.34113862     0.04500
H1151       H  0.31909204  0.28676019  0.31964260     0.06400
H1152       H  0.31303621  0.25497183  0.32090979     0.07300
C1153       C  0.24014492  0.15086843  0.27080807    -0.22300
C1154       C  0.24527082  0.12831659  0.26041693     0.09600
C1155       C  0.23303189  0.10748751  0.26861477     0.10000
C1156       C  0.21545780  0.10978012  0.28679349    -0.17300
C1157       C  0.21026416  0.13235540  0.29719293    -0.27700
C1158       C  0.22282133  0.15316895  0.28920829     0.18400
C1159       C  0.26350825  0.12713775  0.24086417     0.12300
C1160       C  0.23853851  0.08293720  0.25816598    -0.12000
H1161       H  0.20586831  0.09386508  0.29309246     0.12600
C1162       C  0.21742114  0.17791474  0.29940055    -0.22900
H1163       H  0.24967083  0.16673973  0.26434354     0.08200
C1164       C  0.25707735  0.13076495  0.21646040     0.04600
C1165       C  0.27520308  0.13096553  0.19868026    -0.20100
C1166       C  0.29972541  0.12830607  0.20484116    -0.12400
C1167       C  0.30603154  0.12414733  0.22940016     0.13300
C1168       C  0.28776608  0.12350759  0.24704788    -0.22800
C1169       C  0.23113383  0.13492597  0.20928150    -0.05900
H1170       H  0.27025267  0.13406069  0.17998339     0.14800
C1171       C  0.33180863  0.11994618  0.23722850    -0.16100
H1172       H  0.29243109  0.12062379  0.26588222     0.09100
H1173       H  0.19793435  0.18214630  0.29707207     0.07000
H1174       H  0.22802158  0.19225845  0.29015744     0.08200
H1175       H  0.22209451  0.17852811  0.31891944     0.07200
H1176       H  0.25787740  0.07849377  0.26118584     0.02100
H1177       H  0.23477501  0.08289134  0.23844217     0.02600
H1178       H  0.22740493  0.06855249  0.26669879     0.06100
H1179       H  0.22921335  0.13751730  0.18944852     0.05100
H1180       H  0.22412379  0.15136960  0.21844516    -0.00700
H1181       H  0.21995787  0.11913268  0.21463104     0.00800
H1182       H  0.34268688  0.13658166  0.23448142     0.04500
H1183       H  0.33971997  0.10477022  0.22670775     0.06400
H1184       H  0.33300250  0.11521198  0.25672559     0.07300
C1185       C  0.14971889  0.27486168  0.23811925    -0.22300
C1186       C  0.12978212  0.25925840  0.23891432     0.09600
C1187       C  0.11074295  0.26221982  0.22217617     0.10000
C1188       C  0.11204310  0.28093072  0.20506883    -0.17300
C1189       C  0.13192133  0.29675246  0.20434250    -0.27700
C1190       C  0.15128871  0.29332136  0.22080896     0.18400
C1191       C  0.12972670  0.23946434  0.25696730     0.12300
C1192       C  0.08930154  0.24539816  0.22207130    -0.12000
H1193       H  0.09735977  0.28331517  0.19229946     0.12600
C1194       C  0.17416418  0.30818837  0.21959818    -0.22900
H1195       H  0.16432236  0.27230667  0.25096219     0.08200
C1196       C  0.14555325  0.21960125  0.25483027     0.04600
C1197       C  0.14532298  0.20158632  0.27262341    -0.20100
C1198       C  0.12972152  0.20286424  0.29270319    -0.12400
C1199       C  0.11353985  0.22276319  0.29458916     0.13300
C1200       C  0.11389068  0.24080171  0.27669362    -0.22800
C1201       C  0.16255925  0.21720835  0.23363981    -0.05900
H1202       H  0.15776946  0.18655867  0.27092933     0.14800
C1203       C  0.09563644  0.22523009  0.31503602    -0.16100
H1204       H  0.10186483  0.25622087  0.27815637     0.09100
H1205       H  0.18803397  0.30161550  0.23256115     0.07000
H1206       H  0.17032253  0.32733403  0.22420210     0.08200
H1207       H  0.18203267  0.30708078  0.20113499     0.07200
H1208       H  0.07937302  0.24683818  0.23945313     0.02100
H1209       H  0.09552495  0.22647352  0.21952323     0.02600
H1210       H  0.07647022  0.24979040  0.20724992     0.06100
H1211       H  0.17302916  0.20008288  0.23436704     0.05100
H1212       H  0.17569915  0.23236716  0.23358257    -0.00700
H1213       H  0.15210581  0.21738446  0.21648885     0.00800
H1214       H  0.08372610  0.24122965  0.31265988     0.04500
H1215       H  0.10532241  0.22759782  0.33246375     0.06400
H1216       H  0.08387627  0.20896051  0.31581443     0.07300
C1217       C  0.97306995  0.37761361  0.15009855    -0.22300
C1218       C  0.98547589  0.35820957  0.13956725     0.09600
C1219       C  0.97239192  0.33922753  0.12868636     0.10000
C1220       C  0.94705102  0.33970082  0.12928541    -0.17300
C1221       C  0.93443242  0.35874690  0.14051242    -0.27700
C1222       C  0.94769392  0.37838514  0.15037299     0.18400
C1223       C  0.01214099  0.35730986  0.14147151     0.12300
C1224       C  0.98520317  0.31830023  0.11680364    -0.12000
H1225       H  0.93705103  0.32469299  0.12157745     0.12600
C1226       C  0.93599441  0.40078446  0.16060092    -0.22900
H1227       H  0.98329632  0.39229597  0.15814942     0.08200
C1228       C  0.02732832  0.36799649  0.12400417     0.04600
C1229       C  0.05251886  0.36560459  0.12631879    -0.20100
C1230       C  0.06276829  0.35307358  0.14591453    -0.12400
C1231       C  0.04737607  0.34242300  0.16346401     0.13300
C1232       C  0.02228100  0.34486980  0.16103266    -0.22800
C1233       C  0.01692143  0.38191444  0.10304041    -0.05900
H1234       H  0.06428872  0.37378268  0.11294255     0.14800
C1235       C  0.05641340  0.32746600  0.18443367    -0.16100
H1236       H  0.01044360  0.33656169  0.17427906     0.09100
H1237       H  0.94348410  0.41697899  0.15137753     0.07000
H1238       H  0.93998063  0.40212643  0.18024379     0.08200
H1239       H  0.91620909  0.40134387  0.15792936     0.07200
H1240       H  0.99668005  0.30880720  0.13026198     0.02100
H1241       H  0.99677780  0.32504131  0.10184692     0.02600
H1242       H  0.97225146  0.30498259  0.10913973     0.06100
H1243       H  0.03131048  0.38916606  0.09104611     0.05100
H1244       H  0.00611466  0.39738220  0.10991523    -0.00700
H1245       H  0.00508429  0.36993866  0.09209514     0.00800
H1246       H  0.05127993  0.33633746  0.20171612     0.04500
H1247       H  0.07617894  0.32464678  0.18440458     0.06400
H1248       H  0.04795213  0.30925536  0.18376277     0.07300
C1249       C  0.97390934  0.12843847  0.36852282    -0.22300
C1250       C  0.98893418  0.14534892  0.35706173     0.09600
C1251       C  0.97857981  0.16437865  0.34358570     0.10000
C1252       C  0.95336905  0.16596425  0.34165398    -0.17300
C1253       C  0.93826603  0.14870640  0.35249233    -0.27700
C1254       C  0.94860627  0.12995549  0.36655810     0.18400
C1255       C  0.01553418  0.14254098  0.35834992     0.12300
C1256       C  0.99418953  0.18274929  0.33084903    -0.12000
H1257       H  0.94539230  0.18038292  0.33103315     0.12600
C1258       C  0.93359168  0.11177302  0.38026555    -0.22900
H1259       H  0.98197664  0.11398145  0.37903577     0.08200
C1260       C  0.02938787  0.15431903  0.37619413     0.04600
C1261       C  0.05471554  0.15413429  0.37441271    -0.20100
C1262       C  0.06660785  0.14269676  0.35495684    -0.12400
C1263       C  0.05246442  0.12969235  0.33779036     0.13300
C1264       C  0.02715403  0.12978369  0.33985354    -0.22800
C1265       C  0.01738728  0.16760823  0.39673799    -0.05900
H1266       H  0.06517440  0.16384100  0.38784675     0.14800
C1267       C  0.06352298  0.11582542  0.31704314    -0.16100
H1268       H  0.01622396  0.12066201  0.32635109     0.09100
H1269       H  0.93834344  0.11253796  0.39977936     0.07000
H1270       H  0.93740558  0.09330128  0.37336150     0.08200
H1271       H  0.91390855  0.11513150  0.37882130     0.07200
H1272       H  0.00595779  0.17353500  0.31743557     0.02100
H1273       H  0.00567928  0.19238900  0.34420433     0.02600
H1274       H  0.98317738  0.19641731  0.32109122     0.06100
H1275       H  0.03084160  0.17588369  0.40916182     0.05100
H1276       H  0.00609901  0.15482898  0.40734164    -0.00700
H1277       H  0.00572755  0.18226386  0.38952565     0.00800
H1278       H  0.04969583  0.10561375  0.30662344     0.04500
H1279       H  0.07685613  0.10255041  0.32405064     0.06400
H1280       H  0.07238014  0.12846297  0.30421482     0.07300
C1281       C  0.87017691  0.22296562  0.24985014    -0.22300
C1282       C  0.87311572  0.24709809  0.25699841     0.09600
C1283       C  0.87608546  0.25266191  0.28171788     0.10000
C1284       C  0.87568962  0.23393660  0.29884539    -0.17300
C1285       C  0.87258298  0.20968970  0.29185552    -0.27700
C1286       C  0.86985593  0.20414165  0.26691846     0.18400
C1287       C  0.87186365  0.26635084  0.23837156     0.12300
C1288       C  0.87983374  0.27835666  0.28997731    -0.12000
H1289       H  0.87786165  0.23827249  0.31785703     0.12600
C1290       C  0.86532045  0.17872987  0.25814672    -0.22900
H1291       H  0.86763802  0.21893996  0.23081350     0.08200
C1292       C  0.89131274  0.27108103  0.22259791     0.04600
C1293       C  0.88887987  0.28911349  0.20487018    -0.20100
C1294       C  0.86745850  0.30263671  0.20259692    -0.12400
C1295       C  0.84784993  0.29767449  0.21845616     0.13300
C1296       C  0.85048829  0.27974222  0.23622438    -0.22800
C1297       C  0.91474185  0.25736946  0.22473854    -0.05900
H1298       H  0.90390817  0.29285744  0.19287204     0.14800
C1299       C  0.82347319  0.30985209  0.21679963    -0.16100
H1300       H  0.83551154  0.27578998  0.24824971     0.09100
H1301       H  0.88090747  0.16692947  0.26260955     0.07000
H1302       H  0.86274424  0.17801008  0.23822354     0.08200
H1303       H  0.84863014  0.17163585  0.26665460     0.07200
H1304       H  0.86386808  0.28950061  0.28514678     0.02100
H1305       H  0.89615484  0.28598119  0.28110671     0.02600
H1306       H  0.88240254  0.27949891  0.30987801     0.06100
H1307       H  0.92832385  0.26371079  0.21136757     0.05100
H1308       H  0.91153354  0.23780912  0.22153916    -0.00700
H1309       H  0.92239651  0.25991001  0.24314344     0.00800
H1310       H  0.80913948  0.29587031  0.21517545     0.04500
H1311       H  0.82142630  0.32182388  0.20096351     0.06400
H1312       H  0.82015890  0.32056399  0.23347872     0.07300
C1313       C  0.52805614  0.38409658  0.35859257    -0.22300
C1314       C  0.51393057  0.36309821  0.35773364     0.09600
C1315       C  0.52522162  0.34028469  0.35724253     0.10000
C1316       C  0.55046344  0.33897390  0.35625915    -0.17300
C1317       C  0.56489268  0.35994798  0.35580293    -0.27700
C1318       C  0.55345574  0.38287701  0.35825256     0.18400
C1319       C  0.48737844  0.36505846  0.35533019     0.12300
C1320       C  0.51056127  0.31728187  0.35705526    -0.12000
H1321       H  0.55888274  0.32132994  0.35484863     0.12600
C1322       C  0.56699048  0.40637412  0.36127819    -0.22900
H1323       H  0.51918166  0.40156347  0.35947670     0.08200
C1324       C  0.47196523  0.36514788  0.37559521     0.04600
C1325       C  0.44690433  0.36319712  0.37208233    -0.20100
C1326       C  0.43686895  0.36117911  0.34872818    -0.12400
C1327       C  0.45250564  0.36244957  0.32835345     0.13300
C1328       C  0.47752898  0.36433755  0.33203406    -0.22800
C1329       C  0.48201504  0.36679914  0.40086675    -0.05900
H1330       H  0.43513028  0.36284498  0.38774189     0.14800
C1331       C  0.44338487  0.36086387  0.30267883    -0.16100
H1332       H  0.48967327  0.36435843  0.31662453     0.09100
H1333       H  0.56015578  0.41591216  0.37759437     0.07000
H1334       H  0.56382068  0.41806173  0.34526219     0.08200
H1335       H  0.58663501  0.40407148  0.36409063     0.07200
H1336       H  0.49878997  0.31678700  0.34079505     0.02100
H1337       H  0.49912033  0.31640479  0.37353211     0.02600
H1338       H  0.52225536  0.30095675  0.35673317     0.06100
H1339       H  0.46744811  0.36668593  0.41470537     0.05100
H1340       H  0.49243309  0.38385377  0.40288317    -0.00700
H1341       H  0.49414278  0.35121268  0.40442700     0.00800
H1342       H  0.45839111  0.36132954  0.28932478     0.04500
H1343       H  0.43140972  0.37647198  0.29871363     0.06400
H1344       H  0.43341274  0.34363577  0.29997868     0.07300
C1345       C  0.76695890  0.23137671  0.34318648    -0.22300
C1346       C  0.76104420  0.24213200  0.36538513     0.09600
C1347       C  0.77270202  0.23437411  0.38670891     0.10000
C1348       C  0.79000617  0.21585439  0.38538253    -0.17300
C1349       C  0.79568275  0.20474369  0.36326367    -0.27700
C1350       C  0.78432293  0.21287615  0.34180932     0.18400
C1351       C  0.74259882  0.26155462  0.36588421     0.12300
C1352       C  0.76690461  0.24570860  0.41081106    -0.12000
H1353       H  0.79907353  0.20997442  0.40170823     0.12600
C1354       C  0.79136048  0.20302523  0.31734974    -0.22900
H1355       H  0.75813652  0.23772187  0.32685988     0.08200
C1356       C  0.74887149  0.28599338  0.36237590     0.04600
C1357       C  0.73072010  0.30371613  0.36293213    -0.20100
C1358       C  0.70625224  0.29760799  0.36650429    -0.12400
C1359       C  0.70008473  0.27287678  0.37005622     0.13300
C1360       C  0.71840734  0.25526409  0.36977316    -0.22800
C1361       C  0.77470825  0.29332855  0.35782694    -0.05900
H1362       H  0.73574029  0.32247703  0.36043402     0.14800
C1363       C  0.67433718  0.26455352  0.37347181    -0.16100
H1364       H  0.71386119  0.23637114  0.37238556     0.09100
H1365       H  0.81100811  0.20583748  0.31430414     0.07000
H1366       H  0.78141621  0.21217390  0.30248476     0.08200
H1367       H  0.78724268  0.18345537  0.31627453     0.07200
H1368       H  0.74745087  0.24311454  0.41501455     0.02100
H1369       H  0.77096250  0.26536455  0.41026754     0.02600
H1370       H  0.77765941  0.23752741  0.42567585     0.06100
H1371       H  0.77650891  0.31318996  0.35538715     0.05100
H1372       H  0.78145008  0.28435845  0.34116368    -0.00700
H1373       H  0.78619035  0.28787883  0.37336300     0.00800
H1374       H  0.67304537  0.24455808  0.37497107     0.04500
H1375       H  0.66320500  0.27014858  0.35773057     0.06400
H1376       H  0.66679979  0.27230760  0.39039129     0.07300
C1377       C  0.74131827  0.36198623  0.27146847    -0.22300
C1378       C  0.73507337  0.37259758  0.24934446     0.09600
C1379       C  0.71149991  0.38173905  0.24593513     0.10000
C1380       C  0.69462260  0.38006609  0.26486952    -0.17300
C1381       C  0.70094150  0.36973753  0.28718520    -0.27700
C1382       C  0.72455576  0.36042996  0.29045380     0.18400
C1383       C  0.75343066  0.37328246  0.22982863     0.12300
C1384       C  0.70431694  0.39348996  0.22244241    -0.12000
H1385       H  0.67650735  0.38712542  0.26237469     0.12600
C1386       C  0.73186046  0.34782830  0.31344705    -0.22900
H1387       H  0.75936437  0.35468606  0.27375933     0.08200
C1388       C  0.77211920  0.39061633  0.22968843     0.04600
C1389       C  0.78960465  0.38994269  0.21128135    -0.20100
C1390       C  0.78890281  0.37227884  0.19295555    -0.12400
C1391       C  0.76995283  0.35483878  0.19320818     0.13300
C1392       C  0.75252918  0.35566098  0.21167302    -0.22800
C1393       C  0.77355036  0.40982902  0.24897155    -0.05900
H1394       H  0.80393220  0.40332317  0.21125046     0.14800
C1395       C  0.76813072  0.33479706  0.17469955    -0.16100
H1396       H  0.73818210  0.34230649  0.21215629     0.09100
H1397       H  0.73058006  0.36046454  0.32899292     0.07000
H1398       H  0.75075860  0.34108125  0.31262014     0.08200
H1399       H  0.71986262  0.33201959  0.31641692     0.07200
H1400       H  0.70600018  0.38028794  0.20739870     0.02100
H1401       H  0.71627943  0.40921207  0.21882183     0.02600
H1402       H  0.68533726  0.40002871  0.22290805     0.06100
H1403       H  0.78905721  0.42224489  0.24599100     0.05100
H1404       H  0.77582066  0.40126417  0.26698856    -0.00700
H1405       H  0.75669768  0.42073453  0.24892171     0.00800
H1406       H  0.75296637  0.32223825  0.17868804     0.04500
H1407       H  0.78502538  0.32396993  0.17454744     0.06400
H1408       H  0.76479203  0.34249723  0.15646443     0.07300
C1409       C  0.52571149  0.16015662  0.12514115    -0.22300
C1410       C  0.51367644  0.14450658  0.14094872     0.09600
C1411       C  0.52712151  0.12932784  0.15639356     0.10000
C1412       C  0.55247491  0.13045827  0.15591455    -0.17300
C1413       C  0.56469800  0.14666899  0.14058241    -0.27700
C1414       C  0.55099307  0.16181665  0.12499381     0.18400
C1415       C  0.48695876  0.14553381  0.14188270     0.12300
C1416       C  0.51472676  0.11256425  0.17392637    -0.12000
H1417       H  0.56279574  0.11893055  0.16794032     0.12600
C1418       C  0.56249529  0.18079454  0.10913193    -0.22900
H1419       H  0.51512008  0.17175994  0.11341405     0.08200
C1420       C  0.47497392  0.16555687  0.15223633     0.04600
C1421       C  0.44968245  0.16628487  0.15200158    -0.20100
C1422       C  0.43604422  0.14743153  0.14182848    -0.12400
C1423       C  0.44806659  0.12749417  0.13113282     0.13300
C1424       C  0.47343726  0.12675098  0.13149497    -0.22800
C1425       C  0.48881414  0.18590936  0.16402409    -0.05900
H1426       H  0.44044320  0.18148336  0.16029840     0.14800
C1427       C  0.43494987  0.10728558  0.11831252    -0.16100
H1428       H  0.48278060  0.11163542  0.12317456     0.09100
H1429       H  0.54878221  0.19189505  0.09953204     0.07000
H1430       H  0.57385297  0.17208066  0.09515038     0.08200
H1431       H  0.57363734  0.19322703  0.12031685     0.07200
H1432       H  0.50350319  0.09927766  0.16389510     0.02100
H1433       H  0.50299459  0.12317907  0.18630249     0.02600
H1434       H  0.52794219  0.10235466  0.18508326     0.06100
H1435       H  0.47652913  0.19967680  0.17197517     0.05100
H1436       H  0.50037748  0.19515206  0.15048578    -0.00700
H1437       H  0.50034930  0.17862091  0.17875697     0.00800
H1438       H  0.44191829  0.10566387  0.09953313     0.04500
H1439       H  0.41520447  0.11022619  0.11694614     0.06400
H1440       H  0.43821378  0.08997217  0.12794484     0.07300
C1441       C  0.71954484  0.24752368  0.13953713    -0.22300
C1442       C  0.73832100  0.24492966  0.12280292     0.09600
C1443       C  0.73865266  0.22490267  0.10705293     0.10000
C1444       C  0.71996041  0.20782533  0.10827716    -0.17300
C1445       C  0.70098169  0.21021891  0.12504111    -0.27700
C1446       C  0.70082624  0.23045525  0.14096794     0.18400
C1447       C  0.75809961  0.26288136  0.12287177     0.12300
C1448       C  0.75885078  0.22151271  0.08908947    -0.12000
H1449       H  0.72027155  0.19245302  0.09610514     0.12600
C1450       C  0.68160462  0.23405251  0.16003559    -0.22900
H1451       H  0.71974511  0.26290213  0.15171712     0.08200
C1452       C  0.75635561  0.28479749  0.11005953     0.04600
C1453       C  0.77575893  0.30115767  0.11072805    -0.20100
C1454       C  0.79690649  0.29619986  0.12408040    -0.12400
C1455       C  0.79832715  0.27400580  0.13714536     0.13300
C1456       C  0.77888581  0.25774379  0.13623615    -0.22800
C1457       C  0.73400158  0.29082649  0.09570935    -0.05900
H1458       H  0.77424565  0.31800179  0.10082382     0.14800
C1459       C  0.81988899  0.26706745  0.15238328    -0.16100
H1460       H  0.77979984  0.24081370  0.14610645     0.09100
H1461       H  0.66376764  0.23705403  0.15135300     0.07000
H1462       H  0.68538194  0.25003616  0.17162710     0.08200
H1463       H  0.68071519  0.21800337  0.17201922     0.07200
H1464       H  0.77634063  0.21982202  0.09879719     0.02100
H1465       H  0.75966277  0.23731225  0.07672661     0.02600
H1466       H  0.75625853  0.20497280  0.07796708     0.06100
H1467       H  0.73559737  0.30864066  0.08656720     0.05100
H1468       H  0.71808158  0.29147495  0.10792734    -0.00700
H1469       H  0.73095767  0.27680349  0.08164222     0.00800
H1470       H  0.81740871  0.24922603  0.16128447     0.04500
H1471       H  0.82267721  0.28062831  0.16694655     0.06400
H1472       H  0.83627292  0.26571718  0.14086431     0.07300
C1473       C  0.75804244  0.13146804  0.27696213    -0.22300
C1474       C  0.76453650  0.13206628  0.25252059     0.09600
C1475       C  0.78918858  0.13242601  0.24599568     0.10000
C1476       C  0.80683433  0.13232219  0.26421843    -0.17300
C1477       C  0.80046119  0.13163086  0.28883915    -0.27700
C1478       C  0.77557883  0.13089508  0.29525970     0.18400
C1479       C  0.74507765  0.13275958  0.23416164     0.12300
C1480       C  0.79691404  0.13257243  0.21984674    -0.12000
H1481       H  0.82575568  0.13261716  0.25915637     0.12600
C1482       C  0.76702807  0.12992165  0.32116881    -0.22900
H1483       H  0.73901843  0.13147996  0.28170746     0.08200
C1484       C  0.73001948  0.11258491  0.22979347     0.04600
C1485       C  0.71145286  0.11443939  0.21260051    -0.20100
C1486       C  0.70806238  0.13574803  0.19924748    -0.12400
C1487       C  0.72319981  0.15596379  0.20369574     0.13300
C1488       C  0.74128310  0.15426572  0.22136266    -0.22800
C1489       C  0.73390256  0.08895246  0.24280145    -0.05900
H1490       H  0.69987761  0.09898628  0.20918004     0.14800
C1491       C  0.71997554  0.17960337  0.19047531    -0.16100
H1492       H  0.75265556  0.16979673  0.22520190     0.09100
H1493       H  0.77323967  0.11292158  0.32982096     0.07000
H1494       H  0.74698924  0.13026825  0.32246887     0.08200
H1495       H  0.77392166  0.14570403  0.33138252     0.07200
H1496       H  0.79040639  0.14925791  0.21081786     0.02100
H1497       H  0.78931801  0.11652494  0.21044054     0.02600
H1498       H  0.81690281  0.13202383  0.21799262     0.06100
H1499       H  0.72114304  0.07478203  0.23645537     0.05100
H1500       H  0.73108773  0.09136564  0.26252439    -0.00700
H1501       H  0.75259776  0.08242068  0.23950959     0.00800
H1502       H  0.73226111  0.19386841  0.19751085     0.04500
H1503       H  0.70113944  0.18603178  0.19275144     0.06400
H1504       H  0.72402575  0.17728223  0.17095121     0.07300
C1505       C  0.60758314  0.23836727  0.22230059    -0.22300
C1506       C  0.62748925  0.24153963  0.23773601     0.09600
C1507       C  0.64822317  0.22706331  0.23459999     0.10000
C1508       C  0.64847955  0.20948400  0.21632061    -0.17300
C1509       C  0.62863297  0.20614780  0.20077446    -0.27700
C1510       C  0.60788669  0.22085589  0.20377493     0.18400
C1511       C  0.62637433  0.26008024  0.25715041     0.12300
C1512       C  0.67016370  0.23027520  0.25044898    -0.12000
H1513       H  0.66438975  0.19828459  0.21410192     0.12600
C1514       C  0.58573141  0.21758332  0.18824116    -0.22900
H1515       H  0.59171154  0.24955836  0.22489751     0.08200
C1516       C  0.63098516  0.28467555  0.25230504     0.04600
C1517       C  0.63086834  0.30138803  0.27144004    -0.20100
C1518       C  0.62627381  0.29414315  0.29540318    -0.12400
C1519       C  0.62083655  0.26949622  0.30008747     0.13300
C1520       C  0.62127616  0.25278659  0.28090252    -0.22800
C1521       C  0.63656750  0.29316605  0.22701892    -0.05900
H1522       H  0.63503526  0.32019153  0.26772974     0.14800
C1523       C  0.61357645  0.26015857  0.32466842    -0.16100
H1524       H  0.61744491  0.23387738  0.28446230     0.09100
H1525       H  0.57081365  0.22976350  0.19394412     0.07000
H1526       H  0.57915575  0.19864757  0.18962553     0.08200
H1527       H  0.59006356  0.22180566  0.16910134     0.07200
H1528       H  0.66535063  0.22665745  0.26960411     0.02100
H1529       H  0.67702904  0.24907826  0.24879527     0.02600
H1530       H  0.68498357  0.21773775  0.24527475     0.06100
H1531       H  0.64008788  0.31293977  0.22641293     0.05100
H1532       H  0.62102676  0.28922343  0.21493248    -0.00700
H1533       H  0.65286173  0.28368737  0.22010601     0.00800
H1534       H  0.59587186  0.25077802  0.32322634     0.04500
H1535       H  0.61133939  0.27455942  0.33837977     0.06400
H1536       H  0.62729616  0.24704430  0.33121044     0.07300
C1537       C  0.47718860  0.66998289  0.35696731    -0.22300
C1538       C  0.48864149  0.64740440  0.35675005     0.09600
C1539       C  0.47459586  0.62610537  0.35582642     0.10000
C1540       C  0.44927828  0.62791053  0.35449406    -0.17300
C1541       C  0.43780529  0.65053636  0.35444820    -0.27700
C1542       C  0.45194433  0.67187515  0.35574665     0.18400
C1543       C  0.51540442  0.64670622  0.35568854     0.12300
C1544       C  0.48637783  0.60156538  0.35614762    -0.12000
H1545       H  0.43837866  0.61163004  0.35352513     0.12600
C1546       C  0.44123322  0.69695024  0.35495193    -0.22900
H1547       H  0.48809132  0.68628404  0.35745357     0.08200
C1548       C  0.52756441  0.64752479  0.33332092     0.04600
C1549       C  0.55289795  0.64780217  0.33292906    -0.20100
C1550       C  0.56659710  0.64765782  0.35441376    -0.12400
C1551       C  0.55421279  0.64674923  0.37695272     0.13300
C1552       C  0.52875537  0.64620681  0.37721841    -0.22800
C1553       C  0.51374329  0.64844888  0.30982600    -0.05900
H1554       H  0.56201559  0.64871575  0.31559914     0.14800
C1555       C  0.56743521  0.64608656  0.40079870    -0.16100
H1556       H  0.51915225  0.64566792  0.39430364     0.09100
H1557       H  0.44861555  0.70687754  0.33912240     0.07000
H1558       H  0.44615163  0.70688285  0.37171193     0.08200
H1559       H  0.42131183  0.69702244  0.35335961     0.07200
H1560       H  0.49703182  0.59944806  0.37304264     0.02100
H1561       H  0.49861496  0.59962740  0.34035321     0.02600
H1562       H  0.47279273  0.58678037  0.35539067     0.06100
H1563       H  0.52601927  0.64907292  0.29393644     0.05100
H1564       H  0.50218284  0.66485605  0.30939813    -0.00700
H1565       H  0.50214117  0.63215862  0.30807469     0.00800
H1566       H  0.57751042  0.66322796  0.40357142     0.04500
H1567       H  0.58011399  0.63051932  0.40111588     0.06400
H1568       H  0.55482619  0.64403187  0.41630596     0.07300
C1569       C  0.62622053  0.52927804  0.36347776    -0.22300
C1570       C  0.64466038  0.51490950  0.35367983     0.09600
C1571       C  0.66469211  0.52604494  0.34245793     0.10000
C1572       C  0.66615408  0.55135648  0.34185821    -0.17300
C1573       C  0.64771703  0.56588402  0.35153702    -0.27700
C1574       C  0.62752983  0.55468032  0.36271925     0.18400
C1575       C  0.64271455  0.48818340  0.35482759     0.12300
C1576       C  0.68417178  0.51121163  0.33044034    -0.12000
H1577       H  0.68150632  0.55988203  0.33315391     0.12600
C1578       C  0.60751954  0.56873336  0.37481135    -0.22900
H1579       H  0.61086283  0.52060991  0.37204100     0.08200
C1580       C  0.65553636  0.47464787  0.37219596     0.04600
C1581       C  0.65646103  0.44934709  0.37006334    -0.20100
C1582       C  0.64453862  0.43713646  0.35111943    -0.12400
C1583       C  0.62977482  0.45082393  0.33505734     0.13300
C1584       C  0.62928922  0.47616569  0.33706370    -0.22800
C1585       C  0.66826761  0.48695943  0.39293377    -0.05900
H1586       H  0.66711504  0.43916489  0.38297476     0.14800
C1587       C  0.61439676  0.43919912  0.31573139    -0.16100
H1588       H  0.61899641  0.48678265  0.32419333     0.09100
H1589       H  0.60557094  0.56255404  0.39382814     0.07000
H1590       H  0.59023557  0.56544047  0.36513469     0.08200
H1591       H  0.61086292  0.58846345  0.37544967     0.07200
H1592       H  0.67608494  0.49991792  0.31591947     0.02100
H1593       H  0.69306797  0.49924679  0.34384829     0.02600
H1594       H  0.69831821  0.52281475  0.32214881     0.06100
H1595       H  0.67721973  0.47371007  0.40508536     0.05100
H1596       H  0.65493379  0.49735161  0.40377576    -0.00700
H1597       H  0.68228252  0.49954567  0.38605053     0.00800
H1598       H  0.60262173  0.45259416  0.30649160     0.04500
H1599       H  0.60247578  0.42530289  0.32392654     0.06400
H1600       H  0.62602574  0.43083214  0.30168429     0.07300
C1601       C  0.52862216  0.88008458  0.14199321    -0.22300
C1602       C  0.51511301  0.85956096  0.14815494     0.09600
C1603       C  0.52706258  0.83787596  0.15421071     0.10000
C1604       C  0.55236072  0.83710853  0.15359230    -0.17300
C1605       C  0.56604984  0.85759718  0.14737714    -0.27700
C1606       C  0.55397713  0.87942469  0.14135344     0.18400
C1607       C  0.48842627  0.86080660  0.14727856     0.12300
C1608       C  0.51314022  0.81572495  0.16188384    -0.12000
H1609       H  0.56154623  0.82050644  0.15854073     0.12600
C1610       C  0.56687912  0.90206810  0.13323516    -0.22900
H1611       H  0.51925729  0.89662210  0.13713755     0.08200
C1612       C  0.47492952  0.87225616  0.16563022     0.04600
C1613       C  0.44959648  0.87167843  0.16452166    -0.20100
C1614       C  0.43749674  0.85975971  0.14557176    -0.12400
C1615       C  0.45117564  0.84936727  0.12653754     0.13300
C1616       C  0.47646669  0.84983523  0.12782343    -0.22800
C1617       C  0.48723161  0.88428491  0.18677617    -0.05900
H1618       H  0.43919140  0.87971529  0.17907488     0.14800
C1619       C  0.43996850  0.83825472  0.10428790    -0.16100
H1620       H  0.48701052  0.84153136  0.11350645     0.09100
H1621       H  0.56404043  0.91664117  0.14677921     0.07000
H1622       H  0.55933020  0.90807487  0.11561394     0.08200
H1623       H  0.58651568  0.89959732  0.13043578     0.07200
H1624       H  0.50121094  0.80956934  0.14695897     0.02100
H1625       H  0.50194176  0.82004439  0.17799360     0.02600
H1626       H  0.52535742  0.80052258  0.16667972     0.06100
H1627       H  0.47395536  0.89190968  0.19978591     0.05100
H1628       H  0.49884853  0.89930527  0.18027385    -0.00700
H1629       H  0.49856409  0.87088898  0.19653513     0.00800
H1630       H  0.44767445  0.84693401  0.08788880     0.04500
H1631       H  0.42018682  0.84077588  0.10332431     0.06400
H1632       H  0.44407794  0.81860566  0.10374082     0.07300
C1633       C  0.62948224  0.97736630  0.16070982    -0.22300
C1634       C  0.64046012  0.98936188  0.14133798     0.09600
C1635       C  0.65159282  0.97596227  0.12279084     0.10000
C1636       C  0.65267826  0.95070759  0.12467687    -0.17300
C1637       C  0.64303257  0.93847112  0.14485683    -0.27700
C1638       C  0.63048712  0.95207289  0.16274809     0.18400
C1639       C  0.64239908  0.01598012  0.14225776     0.12300
C1640       C  0.66268533  0.98839661  0.10122370    -0.12000
H1641       H  0.66188952  0.94062207  0.11063610     0.12600
C1642       C  0.61814798  0.94044231  0.18412559    -0.22900
H1643       H  0.62081157  0.98797613  0.17473000     0.08200
C1644       C  0.62345847  0.03122680  0.13473676     0.04600
C1645       C  0.62635155  0.05638412  0.13662151    -0.20100
C1646       C  0.64774213  0.06653080  0.14594148    -0.12400
C1647       C  0.66647109  0.05101987  0.15410567     0.13300
C1648       C  0.66361773  0.02597185  0.15175369    -0.22800
C1649       C  0.60037240  0.02093284  0.12460741    -0.05900
H1650       H  0.61193441  0.06820565  0.13059806     0.14800
C1651       C  0.68915865  0.05977140  0.16652386    -0.16100
H1652       H  0.67788715  0.01401652  0.15794521     0.09100
H1653       H  0.60803114  0.95386380  0.19513852     0.07000
H1654       H  0.63174086  0.93196966  0.19620904     0.08200
H1655       H  0.60499405  0.92666435  0.17773081     0.07200
H1656       H  0.67739583  0.00067753  0.10722120     0.02100
H1657       H  0.64865483  0.99910228  0.09165422     0.02600
H1658       H  0.67045567  0.97522162  0.08819171     0.06100
H1659       H  0.58744173  0.03539737  0.11942385     0.05100
H1660       H  0.59153410  0.00926638  0.13835218    -0.00700
H1661       H  0.60441869  0.00997011  0.10826403     0.00800
H1662       H  0.69083168  0.05080340  0.18442814     0.04500
H1663       H  0.68945038  0.07942609  0.17001042     0.06400
H1664       H  0.70516610  0.05496693  0.15539677     0.07300
C1665       C  0.64959284  0.75857786  0.22047391    -0.22300
C1666       C  0.62937916  0.75820640  0.23570128     0.09600
C1667       C  0.61100950  0.77559130  0.23265959     0.10000
C1668       C  0.61341818  0.79310822  0.21446632    -0.17300
C1669       C  0.63368709  0.79362292  0.19907754    -0.27700
C1670       C  0.65210149  0.77592363  0.20214973     0.18400
C1671       C  0.62837491  0.73978417  0.25512732     0.12300
C1672       C  0.58871603  0.77542758  0.24832375    -0.12000
H1673       H  0.59920648  0.80640818  0.21210513     0.12600
C1674       C  0.67505169  0.77472374  0.18738603    -0.22900
H1675       H  0.66380003  0.74531960  0.22317854     0.08200
C1676       C  0.62488465  0.71507054  0.24992274     0.04600
C1677       C  0.62597492  0.69813573  0.26878253    -0.20100
C1678       C  0.63058506  0.70523741  0.29279568    -0.12400
C1679       C  0.63384801  0.73024638  0.29795099     0.13300
C1680       C  0.63251279  0.74708036  0.27901574    -0.22800
C1681       C  0.61989489  0.70657214  0.22449345    -0.05900
H1682       H  0.62333821  0.67913740  0.26469846     0.14800
C1683       C  0.64006700  0.74023601  0.32256610    -0.16100
H1684       H  0.63555444  0.76610158  0.28280190     0.09100
H1685       H  0.67544185  0.75751042  0.17703307     0.07000
H1686       H  0.69090727  0.77503691  0.19970844     0.08200
H1687       H  0.67748503  0.78975937  0.17454416     0.07200
H1688       H  0.59375290  0.77846731  0.26751767     0.02100
H1689       H  0.57939974  0.75771205  0.24662708     0.02600
H1690       H  0.57577717  0.78983498  0.24299639     0.06100
H1691       H  0.61678357  0.68673856  0.22373707     0.05100
H1692       H  0.63550436  0.71077698  0.21261498    -0.00700
H1693       H  0.60351223  0.71574759  0.21739409     0.00800
H1694       H  0.65735801  0.75040046  0.32142682     0.04500
H1695       H  0.64241582  0.72643335  0.33665851     0.06400
H1696       H  0.62561063  0.75281969  0.32855175     0.07300
C1697       C  0.84639386  0.53121357  0.12098960    -0.22300
C1698       C  0.85704282  0.51799712  0.13979863     0.09600
C1699       C  0.86873881  0.53048400  0.15875262     0.10000
C1700       C  0.86862299  0.55595161  0.15899586    -0.17300
C1701       C  0.85716471  0.56934589  0.14063282    -0.27700
C1702       C  0.84668529  0.55665699  0.12086453     0.18400
C1703       C  0.85524283  0.49111020  0.13952824     0.12300
C1704       C  0.88090563  0.51687304  0.17895733    -0.12000
H1705       H  0.87686512  0.56543937  0.17406385     0.12600
C1706       C  0.83642933  0.56907135  0.09886394    -0.22900
H1707       H  0.83789164  0.52156171  0.10617141     0.08200
C1708       C  0.83471039  0.47913003  0.14882197     0.04600
C1709       C  0.83361225  0.45374005  0.14813384    -0.20100
C1710       C  0.85274369  0.43989697  0.13875921    -0.12400
C1711       C  0.87327818  0.45195122  0.12921210     0.13300
C1712       C  0.87422925  0.47740281  0.12976798    -0.22800
C1713       C  0.81416510  0.49315650  0.15991522    -0.05900
H1714       H  0.81797668  0.44458058  0.15563264     0.14800
C1715       C  0.89415214  0.43876071  0.11765482    -0.16100
H1716       H  0.88989679  0.48665811  0.12244799     0.09100
H1717       H  0.81672528  0.56545414  0.09762945     0.07000
H1718       H  0.84536886  0.56187982  0.08236111     0.08200
H1719       H  0.83942491  0.58880927  0.09881836     0.07200
H1720       H  0.89548929  0.50528580  0.17146468     0.02100
H1721       H  0.86750276  0.50530061  0.18841956     0.02600
H1722       H  0.88909529  0.52931506  0.19245371     0.06100
H1723       H  0.79962503  0.48102137  0.16661724     0.05100
H1724       H  0.80620389  0.50550336  0.14623952    -0.00700
H1725       H  0.82092130  0.50396831  0.17544764     0.00800
H1726       H  0.89662317  0.44536774  0.09884363     0.04500
H1727       H  0.89145845  0.41894486  0.11662524     0.06400
H1728       H  0.91093755  0.44241779  0.12804715     0.07300
C1729       C  0.02618216  0.63964914  0.16459094    -0.22300
C1730       C  0.01518247  0.64318767  0.14204810     0.09600
C1731       C  0.02959756  0.64672864  0.12131083     0.10000
C1732       C  0.05485512  0.64741039  0.12371642    -0.17300
C1733       C  0.06589181  0.64435980  0.14636582    -0.27700
C1734       C  0.05138788  0.64028146  0.16709305     0.18400
C1735       C  0.98855370  0.64521261  0.14103851     0.12300
C1736       C  0.01827502  0.64976956  0.09671898    -0.12000
H1737       H  0.06604442  0.65046724  0.10791563     0.12600
C1738       C  0.06162390  0.63772050  0.19227189    -0.22900
H1739       H  0.01495582  0.63717205  0.18049652     0.08200
C1740       C  0.97342439  0.62468901  0.14168162     0.04600
C1741       C  0.94825434  0.62786613  0.14236737    -0.20100
C1742       C  0.93803773  0.65107729  0.14186109    -0.12400
C1743       C  0.95324518  0.67163572  0.14066211     0.13300
C1744       C  0.97834667  0.66838363  0.14039137    -0.22800
C1745       C  0.98385441  0.59954481  0.14138331    -0.05900
H1746       H  0.93647872  0.61221001  0.14323270     0.14800
C1747       C  0.94381842  0.69724096  0.14044499    -0.16100
H1748       H  0.99011284  0.68408327  0.13999908     0.09100
H1749       H  0.05667637  0.61972931  0.19969689     0.07000
H1750       H  0.05387979  0.65197196  0.20413472     0.08200
H1751       H  0.08152345  0.63952108  0.19304310     0.07200
H1752       H  0.00656175  0.66606262  0.09654418     0.02100
H1753       H  0.00717880  0.63359841  0.09235396     0.02600
H1754       H  0.03214654  0.65190789  0.08235193     0.06100
H1755       H  0.96946945  0.58551888  0.14153706     0.05100
H1756       H  0.99547295  0.59678166  0.15751709    -0.00700
H1757       H  0.99486709  0.59701994  0.12477279     0.00800
H1758       H  0.95109823  0.70721086  0.15630505     0.04500
H1759       H  0.92386942  0.69838510  0.14122395     0.06400
H1760       H  0.94990044  0.70644800  0.12366119     0.07300
C1761       C  0.75780382  0.64863489  0.21801719    -0.22300
C1762       C  0.76275841  0.63391319  0.23796528     0.09600
C1763       C  0.78391772  0.61980765  0.23836852     0.10000
C1764       C  0.79988872  0.62091325  0.21872104    -0.17300
C1765       C  0.79528463  0.63590601  0.19862140    -0.27700
C1766       C  0.77372320  0.64992929  0.19831532     0.18400
C1767       C  0.74517100  0.63342235  0.25804706     0.12300
C1768       C  0.78983826  0.60393110  0.25970835    -0.12000
H1769       H  0.81617758  0.61006339  0.21923750     0.12600
C1770       C  0.76726858  0.66663349  0.17774861    -0.22900
H1771       H  0.74133548  0.65927951  0.21798722     0.08200
C1772       C  0.74391334  0.65236758  0.27505555     0.04600
C1773       C  0.72584866  0.65184479  0.29281483    -0.20100
C1774       C  0.70902209  0.63277751  0.29397290    -0.12400
C1775       C  0.71081133  0.61343841  0.27723216     0.13300
C1776       C  0.72885400  0.61410474  0.25939541    -0.22800
C1777       C  0.76173922  0.67299683  0.27458397    -0.05900
H1778       H  0.72470105  0.66658297  0.30570401     0.14800
C1779       C  0.69437245  0.59172070  0.27838285    -0.16100
H1780       H  0.73017719  0.59959311  0.24627992     0.09100
H1781       H  0.75005386  0.67642757  0.18109891     0.07000
H1782       H  0.76490347  0.65604151  0.16084589     0.08200
H1783       H  0.78165742  0.68043936  0.17538376     0.07200
H1784       H  0.77546206  0.59013928  0.26215920     0.02100
H1785       H  0.79116564  0.61514917  0.27632945     0.02600
H1786       H  0.80729428  0.59431747  0.25723029     0.06100
H1787       H  0.75840415  0.68609976  0.28946327     0.05100
H1788       H  0.76033721  0.68287919  0.25716737    -0.00700
H1789       H  0.78038502  0.66584426  0.27663474     0.00800
H1790       H  0.69949042  0.57775246  0.26486816     0.04500
H1791       H  0.67546112  0.59716294  0.27452697     0.06400
H1792       H  0.69548010  0.58334772  0.29659951     0.07300
C1793       C  0.78831516  0.75535522  0.12026526    -0.22300
C1794       C  0.76423868  0.74833481  0.12381641     0.09600
C1795       C  0.75858822  0.72363922  0.12667008     0.10000
C1796       C  0.77727112  0.70651925  0.12629565    -0.17300
C1797       C  0.80155925  0.71348161  0.12362911    -0.27700
C1798       C  0.80708769  0.73828454  0.11987199     0.18400
C1799       C  0.74525330  0.76719456  0.12466438     0.12300
C1800       C  0.73296358  0.71541371  0.13092248    -0.12000
H1801       H  0.77292027  0.68758909  0.12884412     0.12600
C1802       C  0.83216417  0.74753237  0.11441005    -0.22900
H1803       H  0.79245862  0.77434935  0.11759827     0.08200
C1804       C  0.74261913  0.78241708  0.14497437     0.04600
C1805       C  0.72458292  0.80020393  0.14486391    -0.20100
C1806       C  0.70858526  0.80264100  0.12526481    -0.12400
C1807       C  0.71097569  0.78704606  0.10506689     0.13300
C1808       C  0.72955291  0.76973103  0.10491151    -0.22800
C1809       C  0.75841064  0.77948686  0.16700412    -0.05900
H1810       H  0.72260947  0.81194920  0.16043776     0.14800
C1811       C  0.69447973  0.78885441  0.08342190    -0.16100
H1812       H  0.73177511  0.75794217  0.08939290     0.09100
H1813       H  0.83830298  0.75954821  0.12930244     0.07000
H1814       H  0.83175319  0.75815396  0.09736233     0.08200
H1815       H  0.84566006  0.73304022  0.11168712     0.07200
H1816       H  0.72152345  0.72018061  0.11514033     0.02100
H1817       H  0.72564708  0.72431538  0.14738408     0.02600
H1818       H  0.73185671  0.69552684  0.13356695     0.06100
H1819       H  0.75343964  0.79243724  0.18154797     0.05100
H1820       H  0.77760895  0.78271408  0.16217251    -0.00700
H1821       H  0.75643260  0.76087317  0.17429015     0.00800
H1822       H  0.69992721  0.77618310  0.06880354     0.04500
H1823       H  0.69499443  0.80749973  0.07597223     0.06400
H1824       H  0.67569351  0.78418835  0.08869853     0.07300
C1825       C  0.97550961  0.85352248  0.37732125    -0.22300
C1826       C  0.98856176  0.86199383  0.35726949     0.09600
C1827       C  0.97599607  0.87031842  0.33667620     0.10000
C1828       C  0.95065447  0.86945268  0.33632436    -0.17300
C1829       C  0.93754297  0.85984532  0.35582629    -0.27700
C1830       C  0.95007588  0.85227339  0.37683271     0.18400
C1831       C  0.01530924  0.85978544  0.35701673     0.12300
C1832       C  0.98938618  0.87950865  0.31478745    -0.12000
H1833       H  0.94105595  0.87534837  0.32027637     0.12600
C1834       C  0.93673785  0.84325752  0.39883066    -0.22900
H1835       H  0.98529802  0.84724828  0.39309604     0.08200
C1836       C  0.03064838  0.87827943  0.36562932     0.04600
C1837       C  0.05585015  0.87582807  0.36298473    -0.20100
C1838       C  0.06599541  0.85525865  0.35196089    -0.12400
C1839       C  0.05043196  0.83679730  0.34323509     0.13300
C1840       C  0.02538297  0.83919790  0.34626460    -0.22800
C1841       C  0.02038196  0.90056639  0.37743107    -0.05900
H1842       H  0.06770576  0.88996221  0.36965396     0.14800
C1843       C  0.05918148  0.81490361  0.32945364    -0.16100
H1844       H  0.01346694  0.82522591  0.33934218     0.09100
H1845       H  0.94928589  0.83924613  0.41399827     0.07000
H1846       H  0.92682330  0.82636441  0.39446831     0.08200
H1847       H  0.92373506  0.85723238  0.40508046     0.07200
H1848       H  0.00104094  0.86497112  0.30730852     0.02100
H1849       H  0.00083378  0.89518378  0.31993466     0.02600
H1850       H  0.97681348  0.88542914  0.30028302     0.06100
H1851       H  0.03484190  0.91328221  0.38317911     0.05100
H1852       H  0.00980389  0.89534411  0.39368351    -0.00700
H1853       H  0.00835421  0.91015526  0.36453416     0.00800
H1854       H  0.05480716  0.79826747  0.33981278     0.04500
H1855       H  0.07877741  0.81506439  0.32560096     0.06400
H1856       H  0.04986327  0.81405490  0.31166828     0.07300
C1857       C  0.83717919  0.97890452  0.35702901    -0.22300
C1858       C  0.86002364  0.98950475  0.35436509     0.09600
C1859       C  0.88061733  0.97471049  0.35173658     0.10000
C1860       C  0.87778588  0.94947909  0.35134376    -0.17300
C1861       C  0.85485057  0.93885511  0.35359567    -0.27700
C1862       C  0.83422818  0.95375161  0.35639049     0.18400
C1863       C  0.86143256  0.01614231  0.35241999     0.12300
C1864       C  0.90540828  0.98557104  0.34882204    -0.12000
H1865       H  0.89348502  0.93797068  0.34901406     0.12600
C1866       C  0.80875994  0.94401836  0.35740120    -0.22900
H1867       H  0.82139848  0.99042979  0.35870240     0.08200
C1868       C  0.85563404  0.02786861  0.33055158     0.04600
C1869       C  0.85501564  0.05317557  0.32988151    -0.20100
C1870       C  0.86019242  0.06714279  0.35053046    -0.12400
C1871       C  0.86751221  0.05529795  0.37208253     0.13300
C1872       C  0.86758999  0.02988047  0.37282624    -0.22800
C1873       C  0.84991690  0.01364107  0.30797132    -0.05900
H1874       H  0.84976547  0.06209903  0.31322401     0.14800
C1875       C  0.87619467  0.06859614  0.39427316    -0.16100
H1876       H  0.87254441  0.02068679  0.38943674     0.09100
H1877       H  0.79801132  0.95192802  0.34238463     0.07000
H1878       H  0.80030170  0.94921910  0.37486189     0.08200
H1879       H  0.80769993  0.92411578  0.35560946     0.07200
H1880       H  0.90990765  0.99662163  0.36498658     0.02100
H1881       H  0.90583572  0.99725374  0.33249496     0.02600
H1882       H  0.91951788  0.97142219  0.34677731     0.06100
H1883       H  0.84614766  0.02566234  0.29232354     0.05100
H1884       H  0.83374024  0.00215229  0.31099508    -0.00700
H1885       H  0.86552042  0.00193728  0.30320854     0.00800
H1886       H  0.86368430  0.06508183  0.40957924     0.04500
H1887       H  0.87778527  0.08836030  0.39164299     0.06400
H1888       H  0.89449192  0.06197209  0.39923461     0.07300
C1889       C  0.77401046  0.76735365  0.38768240    -0.22300
C1890       C  0.76002429  0.76321841  0.36696872     0.09600
C1891       C  0.76327821  0.77784271  0.34633439     0.10000
C1892       C  0.78064362  0.79634317  0.34686737    -0.17300
C1893       C  0.79503630  0.80030470  0.36746390    -0.27700
C1894       C  0.79154128  0.78570624  0.38822238     0.18400
C1895       C  0.74140315  0.74403325  0.36767735     0.12300
C1896       C  0.74858717  0.77373829  0.32373881    -0.12000
H1897       H  0.78324661  0.80754561  0.33098693     0.12600
C1898       C  0.80550764  0.78991171  0.41127948    -0.22900
H1899       H  0.77106043  0.75620040  0.40353924     0.08200
C1900       C  0.74730548  0.71946711  0.36429040     0.04600
C1901       C  0.72888793  0.70202150  0.36525512    -0.20100
C1902       C  0.70470938  0.70860020  0.36959214    -0.12400
C1903       C  0.69906999  0.73328518  0.37391860     0.13300
C1904       C  0.71747622  0.75065345  0.37247091    -0.22800
C1905       C  0.77292064  0.71178509  0.35915141    -0.05900
H1906       H  0.73330953  0.68320296  0.36192846     0.14800
C1907       C  0.67431467  0.74213569  0.38119150    -0.16100
H1908       H  0.71321787  0.76955295  0.37556223     0.09100
H1909       H  0.82497925  0.78612126  0.40834933     0.07000
H1910       H  0.79920080  0.77790491  0.42610028     0.08200
H1911       H  0.80315453  0.80893175  0.41732286     0.07200
H1912       H  0.72908546  0.77627854  0.32773527     0.02100
H1913       H  0.75156440  0.75504367  0.31700886     0.02600
H1914       H  0.75368321  0.78653806  0.30911416     0.06100
H1915       H  0.77436571  0.69190322  0.35661799     0.05100
H1916       H  0.78479381  0.71701200  0.37448389    -0.00700
H1917       H  0.77944012  0.72072269  0.34238768     0.00800
H1918       H  0.67578086  0.75261165  0.39828144     0.04500
H1919       H  0.66119435  0.72746796  0.38470581     0.06400
H1920       H  0.66703818  0.75424102  0.36693612     0.07300
C1921       C  0.73289153  0.85197776  0.23195558    -0.22300
C1922       C  0.74524665  0.87374361  0.23561022     0.09600
C1923       C  0.73915917  0.89427785  0.22179543     0.10000
C1924       C  0.72010183  0.89277924  0.20508711    -0.17300
C1925       C  0.70722067  0.87112079  0.20180582    -0.27700
C1926       C  0.71427803  0.85021516  0.21488204     0.18400
C1927       C  0.76449977  0.87446696  0.25411239     0.12300
C1928       C  0.75270393  0.91771370  0.22482761    -0.12000
H1929       H  0.71498754  0.90867673  0.19482113     0.12600
C1930       C  0.70354892  0.82552027  0.21064648    -0.22900
H1931       H  0.73809859  0.83612144  0.24227443     0.08200
C1932       C  0.75917666  0.87957514  0.27847830     0.04600
C1933       C  0.77782210  0.87909402  0.29564247    -0.20100
C1934       C  0.80173615  0.87319930  0.28915031    -0.12400
C1935       C  0.80696287  0.86819974  0.26440436     0.13300
C1936       C  0.78820763  0.86899915  0.24728251    -0.22800
C1937       C  0.73371267  0.88519592  0.28637188    -0.05900
H1938       H  0.77347270  0.88285957  0.31438924     0.14800
C1939       C  0.83204224  0.86210185  0.25557688    -0.16100
H1940       H  0.79193990  0.86503495  0.22842806     0.09100
H1941       H  0.69366854  0.81950401  0.22705817     0.07000
H1942       H  0.71828141  0.81242390  0.20681758     0.08200
H1943       H  0.69116965  0.82488768  0.19498680     0.07200
H1944       H  0.77210907  0.91489477  0.22053473     0.02100
H1945       H  0.75102028  0.92418628  0.24376790     0.02600
H1946       H  0.74561743  0.93202611  0.21264818     0.06100
H1947       H  0.73264539  0.88886406  0.30610387     0.05100
H1948       H  0.72174276  0.86959917  0.28225650    -0.00700
H1949       H  0.72698807  0.90140793  0.27663458     0.00800
H1950       H  0.83262564  0.85980056  0.23561335     0.04500
H1951       H  0.83819183  0.84480645  0.26370391     0.06400
H1952       H  0.84474394  0.87691663  0.26033797     0.07300
C1953       C  0.85173920  0.76922630  0.26928997    -0.22300
C1954       C  0.87409842  0.76205057  0.25981898     0.09600
C1955       C  0.89551627  0.77316430  0.26812874     0.10000
C1956       C  0.89410835  0.79094019  0.28622953    -0.17300
C1957       C  0.87177004  0.79771397  0.29614582    -0.27700
C1958       C  0.85022637  0.78710679  0.28720153     0.18400
C1959       C  0.87447515  0.74308398  0.24091623     0.12300
C1960       C  0.91981162  0.76599682  0.25815075    -0.12000
H1961       H  0.91051380  0.79928803  0.29297831     0.12600
C1962       C  0.82532211  0.79474392  0.29535510    -0.22900
H1963       H  0.83531693  0.76096378  0.26244756     0.08200
C1964       C  0.87193179  0.71841768  0.24677728     0.04600
C1965       C  0.87137274  0.70117121  0.22814174    -0.20100
C1966       C  0.87336574  0.70796914  0.20367999    -0.12400
C1967       C  0.87606782  0.73291872  0.19794186     0.13300
C1968       C  0.87655073  0.75006351  0.21669267    -0.22800
C1969       C  0.86990977  0.71032972  0.27272579    -0.05900
H1970       H  0.86937388  0.68223240  0.23277196     0.14800
C1971       C  0.87766393  0.74195073  0.17224385    -0.16100
H1972       H  0.87829384  0.76914171  0.21247262     0.09100
H1973       H  0.81595602  0.77916267  0.30388946     0.07000
H1974       H  0.81465869  0.80076725  0.27942933     0.08200
H1975       H  0.82550173  0.80995905  0.30838331     0.07200
H1976       H  0.92044560  0.76970751  0.23842534     0.02100
H1977       H  0.92290649  0.74640555  0.26129061     0.02600
H1978       H  0.93474059  0.77621038  0.26690319     0.06100
H1979       H  0.86840989  0.69035006  0.27420016     0.05100
H1980       H  0.85359466  0.71842017  0.28116246    -0.00700
H1981       H  0.88619460  0.71617571  0.28292711     0.00800
H1982       H  0.87845454  0.76201211  0.17137533     0.04500
H1983       H  0.86147042  0.73607675  0.16195853     0.06400
H1984       H  0.89430698  0.73495664  0.16348433     0.07300
C1985       C  0.15250875  0.33464640  0.97581792    -0.22300
C1986       C  0.14489989  0.35679018  0.98549809     0.09600
C1987       C  0.14098534  0.37668264  0.96999983     0.10000
C1988       C  0.14462319  0.37386012  0.94503338    -0.17300
C1989       C  0.15194404  0.35159058  0.93522859    -0.27700
C1990       C  0.15597676  0.33168506  0.95087666     0.18400
C1991       C  0.14283579  0.35891187  0.01211074     0.12300
C1992       C  0.13268650  0.40076543  0.97970375    -0.12000
H1993       H  0.14153760  0.38907454  0.93306891     0.12600
C1994       C  0.16487431  0.30756038  0.94170895    -0.22900
H1995       H  0.15605986  0.31967537  0.98796441     0.08200
C1996       C  0.12495598  0.34632605  0.02528629     0.04600
C1997       C  0.12576095  0.34660114  0.05066565    -0.20100
C1998       C  0.14384162  0.35940365  0.06314907    -0.12400
C1999       C  0.16103381  0.37300006  0.04979687     0.13300
C2000       C  0.16040662  0.37228831  0.02447096    -0.22800
C2001       C  0.10509009  0.33261512  0.01260460    -0.05900
H2002       H  0.11242247  0.33643818  0.06082577     0.14800
C2003       C  0.18084311  0.38736290  0.06188445    -0.16100
H2004       H  0.17421648  0.38167094  0.01414877     0.09100
H2005       H  0.15101143  0.29907152  0.92993674     0.07000
H2006       H  0.16857990  0.29476253  0.95674557     0.08200
H2007       H  0.18193063  0.31005148  0.93142057     0.07200
H2008       H  0.14650783  0.40841394  0.99207457     0.02100
H2009       H  0.11542145  0.39844318  0.98968074     0.02600
H2010       H  0.12966567  0.41406648  0.96495640     0.06100
H2011       H  0.09213544  0.32454763  0.02566851     0.05100
H2012       H  0.11281664  0.31769712  0.00163576    -0.00700
H2013       H  0.09491259  0.34507139  0.00058763     0.00800
H2014       H  0.19311309  0.39594595  0.04848669     0.04500
H2015       H  0.19194085  0.37531848  0.07349920     0.06400
H2016       H  0.17285257  0.40209045  0.07295561     0.07300
C2017       C  0.38048728  0.16039100  0.97207228    -0.22300
C2018       C  0.36555728  0.14367610  0.98387133     0.09600
C2019       C  0.35185008  0.12716337  0.97005811     0.10000
C2020       C  0.35253248  0.12846547  0.94468468    -0.17300
C2021       C  0.36669281  0.14585660  0.93267041    -0.27700
C2022       C  0.38137729  0.16167531  0.94667609     0.18400
C2023       C  0.36278208  0.14531509  0.01055623     0.12300
C2024       C  0.33636960  0.10826810  0.98213393    -0.12000
H2025       H  0.34153689  0.11608521  0.93416425     0.12600
C2026       C  0.39719246  0.18075072  0.93526782    -0.22900
H2027       H  0.39087516  0.17305331  0.98285312     0.08200
C2028       C  0.38089809  0.13744828  0.02670828     0.04600
C2029       C  0.37712528  0.13977556  0.05177717    -0.20100
C2030       C  0.35571545  0.14992932  0.06105299    -0.12400
C2031       C  0.33789188  0.15844808  0.04469189     0.13300
C2032       C  0.34159764  0.15571724  0.01974274    -0.22800
C2033       C  0.40401041  0.12637618  0.01750786    -0.05900
H2034       H  0.39090521  0.13348710  0.06423355     0.14800
C2035       C  0.31530186  0.17160666  0.05248969    -0.16100
H2036       H  0.32798983  0.16227303  0.00722278     0.09100
H2037       H  0.41133381  0.17202382  0.92401085     0.07000
H2038       H  0.40656570  0.19196488  0.94906557     0.08200
H2039       H  0.38605261  0.19305504  0.92396633     0.07200
H2040       H  0.32210089  0.11705946  0.99316634     0.02100
H2041       H  0.34778070  0.09679712  0.99402476     0.02600
H2042       H  0.32734873  0.09634123  0.96870470     0.06100
H2043       H  0.41600922  0.12065961  0.03257414     0.05100
H2044       H  0.41401188  0.13972439  0.00634373    -0.00700
H2045       H  0.39981265  0.11021939  0.00632441     0.00800
H2046       H  0.31451350  0.18947373  0.04334137     0.04500
H2047       H  0.31440222  0.17521251  0.07211387     0.06400
H2048       H  0.29915318  0.16091905  0.04717379     0.07300
C2049       C  0.22991937  0.25510971  0.85288649    -0.22300
C2050       C  0.24405729  0.25390156  0.87387591     0.09600
C2051       C  0.23997135  0.27042266  0.89286389     0.10000
C2052       C  0.22203968  0.28820157  0.89022935    -0.17300
C2053       C  0.20792085  0.28967026  0.86911676    -0.27700
C2054       C  0.21181596  0.27270728  0.85023257     0.18400
C2055       C  0.26421813  0.23631073  0.87463032     0.12300
C2056       C  0.25454238  0.26924207  0.91585636    -0.12000
H2057       H  0.21901703  0.30101563  0.90475839     0.12600
C2058       C  0.19775614  0.27354733  0.82684004    -0.22900
H2059       H  0.23341376  0.24243183  0.83832376     0.08200
C2060       C  0.26039856  0.21161555  0.87959827     0.04600
C2061       C  0.27985940  0.19542961  0.87776775    -0.20100
C2062       C  0.30308880  0.20335901  0.87111080    -0.12400
C2063       C  0.30692630  0.22839608  0.86668540     0.13300
C2064       C  0.28739819  0.24444599  0.86861572    -0.22800
C2065       C  0.23579436  0.20238455  0.88670522    -0.05900
H2066       H  0.27687155  0.17637672  0.88135493     0.14800
C2067       C  0.33068260  0.23911010  0.85866833    -0.16100
H2068       H  0.29010919  0.26346429  0.86466475     0.09100
H2069       H  0.17838006  0.26966853  0.83028874     0.07000
H2070       H  0.20433324  0.25989859  0.81362885     0.08200
H2071       H  0.19960376  0.29165113  0.81837556     0.07200
H2072       H  0.27397631  0.27213915  0.91177874     0.02100
H2073       H  0.25220048  0.25122162  0.92440862     0.02600
H2074       H  0.24878285  0.28324863  0.92906850     0.06100
H2075       H  0.23601346  0.18262358  0.89033389     0.05100
H2076       H  0.22267822  0.20585760  0.87191216    -0.00700
H2077       H  0.22962860  0.21175706  0.90337264     0.00800
H2078       H  0.32832759  0.24796104  0.84078221     0.04500
H2079       H  0.34533998  0.22584072  0.85677746     0.06400
H2080       H  0.33661619  0.25293811  0.87198827     0.07300
C2081       C  0.36998409  0.37713097  0.52357868    -0.22300
C2082       C  0.36247148  0.35734092  0.50959449     0.09600
C2083       C  0.35436173  0.33611323  0.52117175     0.10000
C2084       C  0.35393783  0.33515137  0.54652235    -0.17300
C2085       C  0.36094128  0.35508863  0.56067351    -0.27700
C2086       C  0.36944267  0.37630467  0.54900211     0.18400
C2087       C  0.36233516  0.35936069  0.48283119     0.12300
C2088       C  0.34539499  0.31477592  0.50674737    -0.12000
H2089       H  0.34730322  0.31894324  0.55537250     0.12600
C2090       C  0.37873179  0.39811632  0.56252805    -0.22900
H2091       H  0.37631193  0.39336024  0.51455989     0.08200
C2092       C  0.34326925  0.37102875  0.47059252     0.04600
C2093       C  0.34266930  0.37066543  0.44521148    -0.20100
C2094       C  0.36064481  0.35877714  0.43170832    -0.12400
C2095       C  0.38057292  0.34833835  0.44405830     0.13300
C2096       C  0.38092190  0.34847092  0.46948019    -0.22800
C2097       C  0.32311209  0.38312545  0.48436017    -0.05900
H2098       H  0.32750853  0.37887675  0.43590206     0.14800
C2099       C  0.40211145  0.33758168  0.43126692    -0.16100
H2100       H  0.39579295  0.33993281  0.47900232     0.09100
H2101       H  0.36682497  0.41386096  0.55886111     0.07000
H2102       H  0.39728865  0.40246294  0.55620637     0.08200
H2103       H  0.37986497  0.39538853  0.58232486     0.07200
H2104       H  0.36010439  0.30776719  0.49502946     0.02100
H2105       H  0.32991184  0.32039077  0.49525806     0.02600
H2106       H  0.33922907  0.29979945  0.51863579     0.06100
H2107       H  0.30939297  0.39105983  0.47202548     0.05100
H2108       H  0.33055177  0.39791846  0.49573099    -0.00700
H2109       H  0.31392650  0.36970595  0.49614425     0.00800
H2110       H  0.41888462  0.34644981  0.43788255     0.04500
H2111       H  0.40167962  0.34020281  0.41146301     0.06400
H2112       H  0.40318572  0.31792160  0.43520268     0.07300
C2113       C  0.40242237  0.23627081  0.76865261    -0.22300
C2114       C  0.38059701  0.24633440  0.76063188     0.09600
C2115       C  0.35851486  0.23823865  0.77048383     0.10000
C2116       C  0.35877341  0.22038921  0.78846559    -0.17300
C2117       C  0.38054866  0.21005974  0.79635357    -0.27700
C2118       C  0.40272588  0.21822100  0.78650987     0.18400
C2119       C  0.38107138  0.26499048  0.74149462     0.12300
C2120       C  0.33469414  0.24812830  0.76168520    -0.12000
H2121       H  0.34183662  0.21404821  0.79606030     0.12600
C2122       C  0.42696710  0.20896114  0.79487660    -0.22900
H2123       H  0.41932453  0.24264594  0.76101178     0.08200
C2124       C  0.38098251  0.28984827  0.74710650     0.04600
C2125       C  0.37948795  0.30680557  0.72827963    -0.20100
C2126       C  0.37858178  0.29947044  0.70391017    -0.12400
C2127       C  0.37932506  0.27437942  0.69839376     0.13300
C2128       C  0.38047893  0.25751391  0.71732700    -0.22800
C2129       C  0.38252244  0.29840926  0.77294983    -0.05900
H2130       H  0.37914459  0.32592211  0.73263696     0.14800
C2131       C  0.37803831  0.26498271  0.67280513    -0.16100
H2132       H  0.38051785  0.23832134  0.71333406     0.09100
H2133       H  0.43802854  0.22433781  0.80158284     0.07000
H2134       H  0.43652549  0.20032511  0.77946440     0.08200
H2135       H  0.42566001  0.19562994  0.80976194     0.07200
H2136       H  0.33269818  0.24450642  0.74202065     0.02100
H2137       H  0.33388283  0.26793167  0.76483976     0.02600
H2138       H  0.31915769  0.23966674  0.77119818     0.06100
H2139       H  0.38235280  0.31846212  0.77418270     0.05100
H2140       H  0.39956333  0.29177950  0.78123702    -0.00700
H2141       H  0.36695932  0.29138579  0.78348606     0.00800
H2142       H  0.39409143  0.27103876  0.66240905     0.04500
H2143       H  0.36128719  0.27150270  0.66396450     0.06400
H2144       H  0.37775339  0.24490225  0.67219507     0.07300
C2145       C  0.25801645  0.36137837  0.71666170    -0.22300
C2146       C  0.26395122  0.37503669  0.73716039     0.09600
C2147       C  0.28605502  0.38759280  0.73798047     0.10000
C2148       C  0.30222238  0.38550481  0.71856957    -0.17300
C2149       C  0.29689214  0.37114234  0.69814608    -0.27700
C2150       C  0.27404760  0.35934070  0.69702148     0.18400
C2151       C  0.24725772  0.37484278  0.75809851     0.12300
C2152       C  0.29257757  0.40317620  0.75938808    -0.12000
H2153       H  0.31929355  0.39506009  0.71958635     0.12600
C2154       C  0.26625728  0.34437293  0.67556568    -0.22900
H2155       H  0.24082626  0.35195694  0.71624727     0.08200
C2156       C  0.22659000  0.38965317  0.75890945     0.04600
C2157       C  0.21068235  0.38771222  0.77859890    -0.20100
C2158       C  0.21500050  0.37138822  0.79771206    -0.12400
C2159       C  0.23641939  0.35713408  0.79713593     0.13300
C2160       C  0.25209867  0.35901974  0.77723766    -0.22800
C2161       C  0.22140402  0.40752641  0.73901538    -0.05900
H2162       H  0.19466692  0.39898798  0.77891790     0.14800
C2163       C  0.24292415  0.33952102  0.81693690    -0.16100
H2164       H  0.26820787  0.34787914  0.77641268     0.09100
H2165       H  0.26564682  0.35584225  0.65909690     0.07000
H2166       H  0.24794415  0.33652527  0.67812526     0.08200
H2167       H  0.27897504  0.32913564  0.67280503     0.07200
H2168       H  0.29333893  0.39197715  0.77603045     0.02100
H2169       H  0.27876822  0.41755802  0.76173948     0.02600
H2170       H  0.31045200  0.41202545  0.75701506     0.06100
H2171       H  0.20461814  0.41796072  0.74257109     0.05100
H2172       H  0.21918069  0.39785445  0.72155029    -0.00700
H2173       H  0.23662910  0.42053196  0.73747181     0.00800
H2174       H  0.26004052  0.32977708  0.81299959     0.04500
H2175       H  0.22847744  0.32573850  0.81889633     0.06400
H2176       H  0.24549452  0.34934212  0.83427378     0.07300
C2177       C  0.15679325  0.16615919  0.52292577    -0.22300
C2178       C  0.15056184  0.14413525  0.51214583     0.09600
C2179       C  0.14587322  0.12373216  0.52664267     0.10000
C2180       C  0.14719464  0.12592647  0.55190379    -0.17300
C2181       C  0.15303389  0.14812504  0.56288617    -0.27700
C2182       C  0.15808465  0.16851879  0.54811800     0.18400
C2183       C  0.14960589  0.14305661  0.48549898     0.12300
C2184       C  0.13935518  0.09977316  0.51542951    -0.12000
H2185       H  0.14349144  0.11029093  0.56311871     0.12600
C2186       C  0.16565368  0.19263643  0.55849654    -0.22900
H2187       H  0.16070063  0.18157725  0.51146320     0.08200
C2188       C  0.12977436  0.15247955  0.47257006     0.04600
C2189       C  0.13079983  0.15340741  0.44723991    -0.20100
C2190       C  0.15131634  0.14531600  0.43466165    -0.12400
C2191       C  0.17128972  0.13594769  0.44779620     0.13300
C2192       C  0.16988421  0.13452903  0.47304811    -0.22800
C2193       C  0.10764163  0.16160127  0.48556913    -0.05900
H2194       H  0.11558416  0.16062870  0.43719784     0.14800
C2195       C  0.19501063  0.12874985  0.43632496    -0.16100
H2196       H  0.18522597  0.12777075  0.48323242     0.09100
H2197       H  0.15062606  0.20061842  0.56913103     0.07000
H2198       H  0.17039359  0.20582143  0.54409686     0.08200
H2199       H  0.18181728  0.19031563  0.57019171     0.07200
H2200       H  0.15436453  0.09344203  0.50369410     0.02100
H2201       H  0.12273004  0.10177799  0.50434907     0.02600
H2202       H  0.13596607  0.08571856  0.52937661     0.06100
H2203       H  0.09359516  0.16799929  0.47271880     0.05100
H2204       H  0.11256440  0.17694607  0.49756114    -0.00700
H2205       H  0.09975592  0.14683087  0.49665836     0.00800
H2206       H  0.21001474  0.13855273  0.44540866     0.04500
H2207       H  0.19643933  0.13323928  0.41690609     0.06400
H2208       H  0.19786651  0.10900946  0.43865626     0.07300
C2209       C  0.12991152  0.24526704  0.71801810    -0.22300
C2210       C  0.13794431  0.24009447  0.74137781     0.09600
C2211       C  0.14513785  0.21645513  0.74742961     0.10000
C2212       C  0.14468102  0.19841526  0.72955638    -0.17300
C2213       C  0.13694248  0.20346757  0.70578040    -0.27700
C2214       C  0.12917321  0.22736947  0.70009206     0.18400
C2215       C  0.13819407  0.25993026  0.75919334     0.12300
C2216       C  0.15327016  0.21035162  0.77271792    -0.12000
H2217       H  0.15047301  0.18030360  0.73424494     0.12600
C2218       C  0.12027682  0.23465304  0.67532158    -0.22900
H2219       H  0.12424082  0.26356319  0.71382932     0.08200
C2220       C  0.15825650  0.27547889  0.76144217     0.04600
C2221       C  0.15714860  0.29477838  0.77782905    -0.20100
C2222       C  0.13632580  0.29897121  0.79176488    -0.12400
C2223       C  0.11579780  0.28395622  0.78859690     0.13300
C2224       C  0.11722002  0.26431403  0.77264428    -0.22800
C2225       C  0.18078528  0.27166087  0.74660218    -0.05900
H2226       H  0.17282525  0.30632074  0.78017229     0.14800
C2227       C  0.09178689  0.28860768  0.80068854    -0.16100
H2228       H  0.10162192  0.25269107  0.77015795     0.09100
H2229       H  0.11534736  0.25411363  0.67450756     0.07000
H2230       H  0.10381272  0.22417080  0.67059440     0.08200
H2231       H  0.13465943  0.23158284  0.66165562     0.07200
H2232       H  0.13846003  0.21421072  0.78572011     0.02100
H2233       H  0.16930982  0.22140286  0.77759335     0.02600
H2234       H  0.15823457  0.19096565  0.77445606     0.06100
H2235       H  0.19479259  0.28548889  0.75065518     0.05100
H2236       H  0.17633122  0.27282479  0.72704798    -0.00700
H2237       H  0.18853263  0.25356686  0.75052169     0.00800
H2238       H  0.07737978  0.28946607  0.78671157     0.04500
H2239       H  0.09108045  0.30596962  0.81064141     0.06400
H2240       H  0.08759493  0.27360641  0.81335874     0.07300
C2241       C  0.23413750  0.11030454  0.73509293    -0.22300
C2242       C  0.25255764  0.12771167  0.73410586     0.09600
C2243       C  0.25237162  0.14516376  0.71554358     0.10000
C2244       C  0.23344958  0.14518216  0.69866250    -0.17300
C2245       C  0.21456908  0.12812144  0.69975114    -0.27700
C2246       C  0.21510600  0.11023581  0.71816596     0.18400
C2247       C  0.27126584  0.12818522  0.75336200     0.12300
C2248       C  0.27198371  0.16400894  0.71376949    -0.12000
H2249       H  0.23325641  0.15894833  0.68468921     0.12600
C2250       C  0.19611249  0.09075341  0.71993480    -0.22900
H2251       H  0.23454401  0.09690409  0.74938419     0.08200
C2252       C  0.26672675  0.13932748  0.77587529     0.04600
C2253       C  0.28515297  0.14022738  0.79333894    -0.20100
C2254       C  0.30817577  0.13061032  0.78865574    -0.12400
C2255       C  0.31263212  0.11917129  0.76612548     0.13300
C2256       C  0.29407921  0.11814592  0.74876573    -0.22800
C2257       C  0.24257893  0.15073476  0.78123903    -0.05900
H2258       H  0.28175096  0.14896972  0.81055715     0.14800
C2259       C  0.33635337  0.10727279  0.75992027    -0.16100
H2260       H  0.29744363  0.10951285  0.73146823     0.09100
H2261       H  0.17827717  0.09890518  0.72415924     0.07000
H2262       H  0.20029075  0.07757550  0.73450985     0.08200
H2263       H  0.19506323  0.08062887  0.70259997     0.07200
H2264       H  0.28974120  0.15506318  0.71105223     0.02100
H2265       H  0.27255552  0.17487053  0.73066501     0.02600
H2266       H  0.26892848  0.17654776  0.69836784     0.06100
H2267       H  0.24214943  0.15903606  0.79953848     0.05100
H2268       H  0.22813501  0.13681790  0.78034759    -0.00700
H2269       H  0.23873607  0.16511897  0.76775854     0.00800
H2270       H  0.33318581  0.08788604  0.75568389     0.04500
H2271       H  0.34973813  0.10806830  0.77477171     0.06400
H2272       H  0.34432101  0.11619268  0.74379094     0.07300
C2273       C  0.27891002  0.26350244  0.64970463    -0.22300
C2274       C  0.26674554  0.25871468  0.62800775     0.09600
C2275       C  0.27355752  0.27082360  0.60664387     0.10000
C2276       C  0.29232856  0.28781457  0.60752339    -0.17300
C2277       C  0.30459243  0.29269883  0.62921436    -0.27700
C2278       C  0.29772732  0.28044902  0.65070068     0.18400
C2279       C  0.24709356  0.24066467  0.62798715     0.12300
C2280       C  0.26128905  0.26548567  0.58288912    -0.12000
H2281       H  0.29763269  0.29719797  0.59113870     0.12600
C2282       C  0.30893174  0.28528194  0.67515767    -0.22900
H2283       H  0.27344905  0.25413073  0.66605741     0.08200
C2284       C  0.25216201  0.21571468  0.62779323     0.04600
C2285       C  0.23298544  0.19920139  0.62787784    -0.20100
C2286       C  0.20882689  0.20705386  0.62768745    -0.12400
C2287       C  0.20382816  0.23221662  0.62644132     0.13300
C2288       C  0.22309211  0.24867636  0.62738345    -0.22800
C2289       C  0.27780634  0.20655542  0.62731818    -0.05900
H2290       H  0.23693401  0.18000153  0.62855020     0.14800
C2291       C  0.17881767  0.24252578  0.62284091    -0.16100
H2292       H  0.21942088  0.26794307  0.62690059     0.09100
H2293       H  0.31818666  0.26870177  0.68168046     0.07000
H2294       H  0.29453479  0.29008678  0.68831098     0.08200
H2295       H  0.32204950  0.30037753  0.67520028     0.07200
H2296       H  0.24179449  0.27006871  0.58408592     0.02100
H2297       H  0.26323915  0.24598317  0.57847611     0.02600
H2298       H  0.26926374  0.27612316  0.56783046     0.06100
H2299       H  0.27854086  0.18648738  0.62668242     0.05100
H2300       H  0.28753964  0.21262852  0.64379781    -0.00700
H2301       H  0.28721589  0.21365673  0.61105436     0.00800
H2302       H  0.17314535  0.25243798  0.63936935     0.04500
H2303       H  0.16504661  0.22876129  0.61825442     0.06400
H2304       H  0.17909034  0.25537910  0.60739877     0.07300
C2305       C  0.36756900  0.52556511  0.66255582    -0.22300
C2306       C  0.35854312  0.51405196  0.64188243     0.09600
C2307       C  0.34830411  0.52792135  0.62311225     0.10000
C2308       C  0.34775048  0.55321583  0.62528135    -0.17300
C2309       C  0.35663225  0.56486812  0.64607736    -0.27700
C2310       C  0.36623249  0.55074656  0.66523316     0.18400
C2311       C  0.35777454  0.48733353  0.64155429     0.12300
C2312       C  0.33738053  0.51596460  0.60118177    -0.12000
H2313       H  0.33997180  0.56395716  0.61083270     0.12600
C2314       C  0.37365723  0.56108745  0.68940590    -0.22900
H2315       H  0.37470186  0.51466844  0.67723353     0.08200
C2316       C  0.37670490  0.47335829  0.63174027     0.04600
C2317       C  0.37536266  0.44801332  0.63296491    -0.20100
C2318       C  0.35556045  0.43647155  0.64389312    -0.12400
C2319       C  0.33677041  0.45065587  0.65412164     0.13300
C2320       C  0.33806143  0.47588862  0.65250521    -0.22800
C2321       C  0.39837570  0.48520652  0.62029100    -0.05900
H2322       H  0.38978856  0.43714627  0.62534366     0.14800
C2323       C  0.31566689  0.44020777  0.66794476    -0.16100
H2324       H  0.32381415  0.48681982  0.66041370     0.09100
H2325       H  0.39328490  0.55803567  0.69226941     0.07000
H2326       H  0.36349596  0.55176035  0.70401727     0.08200
H2327       H  0.36984736  0.58060280  0.69143566     0.07200
H2328       H  0.32235556  0.50389735  0.60682930     0.02100
H2329       H  0.35127529  0.50509221  0.59163263     0.02600
H2330       H  0.33003828  0.52945867  0.58824209     0.06100
H2331       H  0.41154673  0.47163016  0.61353198     0.05100
H2332       H  0.40766604  0.49680737  0.63380841    -0.00700
H2333       H  0.39259823  0.49653831  0.60477311     0.00800
H2334       H  0.31515705  0.44820002  0.68638383     0.04500
H2335       H  0.31653411  0.42041551  0.67030347     0.06400
H2336       H  0.29854803  0.44472666  0.65848160     0.07300
C2337       C  0.36425503  0.62476434  0.52637944    -0.22300
C2338       C  0.35874801  0.64553555  0.51290600     0.09600
C2339       C  0.35151554  0.66684114  0.52488112     0.10000
C2340       C  0.34975314  0.66690172  0.55013052    -0.17300
C2341       C  0.35465232  0.64604418  0.56380525    -0.27700
C2342       C  0.36228907  0.62472108  0.55178512     0.18400
C2343       C  0.35869543  0.64439959  0.48616733     0.12300
C2344       C  0.34516547  0.68941441  0.51095022    -0.12000
H2345       H  0.34389987  0.68326835  0.55922067     0.12600
C2346       C  0.36888572  0.60213475  0.56554413    -0.22900
H2347       H  0.36975284  0.60848713  0.51693937     0.08200
C2348       C  0.37881486  0.65171335  0.47230778     0.04600
C2349       C  0.37659828  0.65325191  0.44701473    -0.20100
C2350       C  0.35467955  0.64769320  0.43541330    -0.12400
C2351       C  0.33447529  0.64054831  0.44948430     0.13300
C2352       C  0.33696588  0.63851905  0.47461746    -0.22800
C2353       C  0.40245142  0.65807511  0.48425602    -0.05900
H2354       H  0.39198096  0.65886710  0.43624977     0.14800
C2355       C  0.30958180  0.63644073  0.43907080    -0.16100
H2356       H  0.32142118  0.63349100  0.48547469     0.09100
H2357       H  0.37579206  0.58775039  0.55332820     0.07000
H2358       H  0.35275022  0.59483322  0.57496755     0.08200
H2359       H  0.38323174  0.60629716  0.57898222     0.07200
H2360       H  0.32981230  0.68567864  0.49855843     0.02100
H2361       H  0.36096428  0.69550230  0.50018447     0.02600
H2362       H  0.33980386  0.70445736  0.52314963     0.06100
H2363       H  0.41635824  0.66344283  0.47079223     0.05100
H2364       H  0.40933164  0.64219718  0.49443481    -0.00700
H2365       H  0.39985373  0.67338832  0.49698533     0.00800
H2366       H  0.30410728  0.61735504  0.44206198     0.04500
H2367       H  0.30823071  0.64046295  0.41952725     0.06400
H2368       H  0.29644397  0.64846621  0.44837042     0.07300
C2369       C  0.15218497  0.52650290  0.87931103    -0.22300
C2370       C  0.14838650  0.51283440  0.85832466     0.09600
C2371       C  0.14377942  0.52468543  0.83625150     0.10000
C2372       C  0.14340645  0.55004186  0.83555951    -0.17300
C2373       C  0.14787102  0.56408574  0.85638557    -0.27700
C2374       C  0.15212538  0.55195613  0.87871433     0.18400
C2375       C  0.15026136  0.48609269  0.85950158     0.12300
C2376       C  0.13988373  0.51053459  0.81325409    -0.12000
H2377       H  0.14019742  0.55888335  0.81837298     0.12600
C2378       C  0.15668639  0.56535601  0.90206016    -0.22900
H2379       H  0.15567079  0.51712510  0.89617339     0.08200
C2380       C  0.17288139  0.47440382  0.85876020     0.04600
C2381       C  0.17381266  0.44904392  0.85784803    -0.20100
C2382       C  0.15259048  0.43498542  0.85725866    -0.12400
C2383       C  0.12983273  0.44687415  0.85870212     0.13300
C2384       C  0.12905412  0.47226940  0.85993348    -0.22800
C2385       C  0.19604513  0.48874517  0.85818997    -0.05900
H2386       H  0.19125556  0.44024173  0.85674772     0.14800
C2387       C  0.10621120  0.43320161  0.85908428    -0.16100
H2388       H  0.11178926  0.48149083  0.86061286     0.09100
H2389       H  0.17379639  0.57577341  0.90079820     0.07000
H2390       H  0.15851774  0.55282492  0.91765786     0.08200
H2391       H  0.14135725  0.57771532  0.90598223     0.07200
H2392       H  0.12375617  0.49873672  0.81515388     0.02100
H2393       H  0.15598527  0.49915182  0.80947468     0.02600
H2394       H  0.13693411  0.52259105  0.79745933     0.06100
H2395       H  0.21217013  0.47682424  0.85720995     0.05100
H2396       H  0.19754955  0.49991067  0.87482348    -0.00700
H2397       H  0.19618794  0.50077515  0.84210561     0.00800
H2398       H  0.10632138  0.41975766  0.87400711     0.04500
H2399       H  0.10325790  0.42393806  0.84151017     0.06400
H2400       H  0.09056132  0.44544106  0.86201071     0.07300
C2401       C  0.16586882  0.65560553  0.97485744    -0.22300
C2402       C  0.14521459  0.64609978  0.98593864     0.09600
C2403       C  0.12552831  0.63853969  0.97161314     0.10000
C2404       C  0.12712631  0.64030342  0.94630869    -0.17300
C2405       C  0.14788793  0.64969661  0.93506837    -0.27700
C2406       C  0.16735927  0.65799600  0.94965803     0.18400
C2407       C  0.14426270  0.64567064  0.01268695     0.12300
C2408       C  0.10291145  0.62862954  0.98306798    -0.12000
H2409       H  0.11216402  0.63415012  0.93522631     0.12600
C2410       C  0.18943575  0.67066485  0.93975696    -0.22900
H2411       H  0.18068824  0.66192052  0.98607249     0.08200
C2412       C  0.15451609  0.62659424  0.02613893     0.04600
C2413       C  0.15504495  0.62813505  0.05150610    -0.20100
C2414       C  0.14536671  0.64826108  0.06365244    -0.12400
C2415       C  0.13476133  0.66721481  0.05004581     0.13300
C2416       C  0.13437579  0.66563355  0.02471411    -0.22800
C2417       C  0.16506742  0.60479486  0.01366394    -0.05900
H2418       H  0.16317743  0.61364799  0.06190912     0.14800
C2419       C  0.12493451  0.68971505  0.06194601    -0.16100
H2420       H  0.12679047  0.68029543  0.01413134     0.09100
H2421       H  0.20573770  0.65949270  0.94327290     0.07000
H2422       H  0.19166331  0.68836898  0.94901478     0.08200
H2423       H  0.18841769  0.67466327  0.92020716     0.07200
H2424       H  0.09472234  0.64252935  0.99503224     0.02100
H2425       H  0.10737531  0.61236781  0.99395858     0.02600
H2426       H  0.08927344  0.62339675  0.96926884     0.06100
H2427       H  0.17222437  0.59143662  0.02684633     0.05100
H2428       H  0.18013032  0.61044814  0.00165689    -0.00700
H2429       H  0.15091143  0.59575777  0.00264620     0.00800
H2430       H  0.13922713  0.69834633  0.07312845     0.04500
H2431       H  0.10919493  0.68506783  0.07349009     0.06400
H2432       H  0.11872890  0.70320055  0.04841353     0.07300
C2433       C  0.22407409  0.64787550  0.75851086    -0.22300
C2434       C  0.23709755  0.62634687  0.75569024     0.09600
C2435       C  0.23217030  0.60651018  0.77094939     0.10000
C2436       C  0.21409235  0.60866810  0.78866053    -0.17300
C2437       C  0.20090521  0.63021859  0.79144683    -0.27700
C2438       C  0.20623550  0.65025904  0.77633806     0.18400
C2439       C  0.25641148  0.62557136  0.73715192     0.12300
C2440       C  0.24575460  0.58305037  0.76831484    -0.12000
H2441       H  0.21007270  0.59337780  0.80027092     0.12600
C2442       C  0.19456434  0.67480767  0.77905131    -0.22900
H2443       H  0.22831253  0.66320965  0.74701174     0.08200
C2444       C  0.25097050  0.62441497  0.71228502     0.04600
C2445       C  0.26978195  0.62601580  0.69533688    -0.20100
C2446       C  0.29402465  0.62882683  0.70258611    -0.12400
C2447       C  0.29937698  0.62996336  0.72777833     0.13300
C2448       C  0.28046439  0.62797791  0.74459925    -0.22800
C2449       C  0.22531652  0.62128457  0.70365875    -0.05900
H2450       H  0.26547596  0.62502569  0.67622664     0.14800
C2451       C  0.32422372  0.63452233  0.73813198    -0.16100
H2452       H  0.28441175  0.62925939  0.76377791     0.09100
H2453       H  0.20883945  0.68876363  0.78130140     0.07000
H2454       H  0.18399706  0.67908045  0.76251419     0.08200
H2455       H  0.18256838  0.67638526  0.79496966     0.07200
H2456       H  0.26529754  0.58606308  0.77172593     0.02100
H2457       H  0.24330691  0.57585018  0.74971374     0.02600
H2458       H  0.23924508  0.56918563  0.78131706     0.06100
H2459       H  0.22427164  0.62012188  0.68362239     0.05100
H2460       H  0.21414346  0.63688342  0.70953640    -0.00700
H2461       H  0.21763956  0.60437971  0.71131937     0.00800
H2462       H  0.32354205  0.65044883  0.75038297     0.04500
H2463       H  0.33820102  0.63855194  0.72458202     0.06400
H2464       H  0.33007446  0.61852199  0.74875810     0.07300
C2465       C  0.37981123  0.97457545  0.84727496    -0.22300
C2466       C  0.36003916  0.98820878  0.85528451     0.09600
C2467       C  0.33867908  0.97643021  0.86276004     0.10000
C2468       C  0.33768082  0.95109227  0.86218985    -0.17300
C2469       C  0.35718869  0.93738748  0.85343482    -0.27700
C2470       C  0.37861868  0.94925734  0.84607333     0.18400
C2471       C  0.36140104  0.01482893  0.85362294     0.12300
C2472       C  0.31663924  0.99058262  0.87031916    -0.12000
H2473       H  0.32119865  0.94196312  0.86762596     0.12600
C2474       C  0.40037510  0.93536849  0.83736392    -0.22900
H2475       H  0.39605718  0.98388364  0.84142944     0.08200
C2476       C  0.36725768  0.02937737  0.87373108     0.04600
C2477       C  0.36723195  0.05463853  0.87117383    -0.20100
C2478       C  0.36232243  0.06558995  0.84875031    -0.12400
C2479       C  0.35747550  0.05074582  0.82834003     0.13300
C2480       C  0.35688591  0.02556571  0.83117313    -0.22800
C2481       C  0.37399217  0.01823975  0.89766965    -0.05900
H2482       H  0.37128161  0.06590101  0.88671783     0.14800
C2483       C  0.35209152  0.06110774  0.80369026    -0.16100
H2484       H  0.35271943  0.01408556  0.81580368     0.09100
H2485       H  0.41593402  0.94751118  0.83360986     0.07000
H2486       H  0.39604155  0.92562401  0.82035724     0.08200
H2487       H  0.40602583  0.92221846  0.85142170     0.07200
H2488       H  0.31063282  0.00232387  0.85517828     0.02100
H2489       H  0.32083905  0.00205748  0.88622925     0.02600
H2490       H  0.30137811  0.97849066  0.87526630     0.06100
H2491       H  0.37843468  0.03223433  0.91139903     0.05100
H2492       H  0.39008317  0.00647381  0.89529644    -0.00700
H2493       H  0.35883563  0.00719028  0.90474059     0.00800
H2494       H  0.36816267  0.07090437  0.79672995     0.04500
H2495       H  0.33639364  0.07356544  0.80482281     0.06400
H2496       H  0.34759503  0.04678452  0.79031640     0.07300
C2497       C  0.33599985  0.86105437  0.97578050    -0.22300
C2498       C  0.35912123  0.86150760  0.98603741     0.09600
C2499       C  0.37960544  0.86108833  0.97089600     0.10000
C2500       C  0.37645607  0.85978112  0.94569288    -0.17300
C2501       C  0.35324074  0.85878423  0.93522046    -0.27700
C2502       C  0.33269097  0.85967655  0.95063986     0.18400
C2503       C  0.36110695  0.86040081  0.01275757     0.12300
C2504       C  0.40473205  0.86197406  0.98136508    -0.12000
H2505       H  0.39227084  0.85928133  0.93413099     0.12600
C2506       C  0.30716868  0.85816747  0.94112264    -0.22900
H2507       H  0.32041007  0.86114154  0.98766815     0.08200
C2508       C  0.35594466  0.88058852  0.02750750     0.04600
C2509       C  0.35509755  0.87768983  0.05274229    -0.20100
C2510       C  0.35926707  0.85506203  0.06348114    -0.12400
C2511       C  0.36481118  0.83490599  0.04865444     0.13300
C2512       C  0.36586442  0.83794930  0.02349088    -0.22800
C2513       C  0.35119726  0.90508961  0.01660766    -0.05900
H2514       H  0.35084330  0.89306203  0.06414825     0.14800
C2515       C  0.36830383  0.80965675  0.05839144    -0.16100
H2516       H  0.36942715  0.82241480  0.01203707     0.09100
H2517       H  0.30318817  0.87411805  0.92961038     0.07000
H2518       H  0.29363072  0.85801233  0.95596569     0.08200
H2519       H  0.30477188  0.84124193  0.93054908     0.07200
H2520       H  0.40779894  0.84603027  0.99316454     0.02100
H2521       H  0.40694681  0.87874147  0.99221685     0.02600
H2522       H  0.41877394  0.86188024  0.96699888     0.06100
H2523       H  0.34796017  0.91901261  0.03074272     0.05100
H2524       H  0.33498759  0.90430997  0.00479838    -0.00700
H2525       H  0.36704998  0.91080509  0.00568959     0.00800
H2526       H  0.35495402  0.79730467  0.04984430     0.04500
H2527       H  0.36581398  0.80826455  0.07819516     0.06400
H2528       H  0.38679253  0.80326004  0.05390481     0.07300
C2529       C  0.34875634  0.76167273  0.77502965    -0.22300
C2530       C  0.37073732  0.75644708  0.76363449     0.09600
C2531       C  0.39159431  0.76987317  0.76961450     0.10000
C2532       C  0.38995407  0.78832148  0.78699597    -0.17300
C2533       C  0.36798853  0.79345138  0.79864875    -0.27700
C2534       C  0.34697540  0.78017120  0.79227127     0.18400
C2535       C  0.37106788  0.73773387  0.74450297     0.12300
C2536       C  0.41560017  0.76441212  0.75796746    -0.12000
H2537       H  0.40599180  0.79854646  0.79179718     0.12600
C2538       C  0.32217515  0.78560396  0.80226871    -0.22900
H2539       H  0.33269339  0.75159435  0.76995584     0.08200
C2540       C  0.37045771  0.71286542  0.75003943     0.04600
C2541       C  0.36973279  0.69594091  0.73113284    -0.20100
C2542       C  0.36972139  0.70328719  0.70675778    -0.12400
C2543       C  0.37044318  0.72840573  0.70133627     0.13300
C2544       C  0.37103888  0.74521960  0.72033594    -0.22800
C2545       C  0.37076969  0.70421803  0.77587537    -0.05900
H2546       H  0.36924882  0.67682698  0.73547035     0.14800
C2547       C  0.36973015  0.73788187  0.67576642    -0.16100
H2548       H  0.37123851  0.76443104  0.71637563     0.09100
H2549       H  0.31563940  0.76994606  0.81301228     0.07000
H2550       H  0.30940478  0.78880573  0.78709124     0.08200
H2551       H  0.32164454  0.80195360  0.81376462     0.07200
H2552       H  0.41442221  0.76725199  0.73812717     0.02100
H2553       H  0.42067830  0.74532789  0.76161636     0.02600
H2554       H  0.43017825  0.77626475  0.76509688     0.06100
H2555       H  0.37064516  0.68415682  0.77700657     0.05100
H2556       H  0.35460572  0.71107238  0.78559231    -0.00700
H2557       H  0.38732903  0.71092837  0.78504872     0.00800
H2558       H  0.36900027  0.75795449  0.67521101     0.04500
H2559       H  0.35337963  0.73093653  0.66645900     0.06400
H2560       H  0.38622672  0.73223969  0.66583197     0.07300
C2561       C  0.25404426  0.78192732  0.85408572    -0.22300
C2562       C  0.25628853  0.76395643  0.87176023     0.09600
C2563       C  0.27531227  0.76516676  0.88865287     0.10000
C2564       C  0.29215101  0.78409026  0.88708039    -0.17300
C2565       C  0.29035360  0.80203808  0.86909926    -0.27700
C2566       C  0.27065767  0.80108941  0.85254999     0.18400
C2567       C  0.23899609  0.74349944  0.87147480     0.12300
C2568       C  0.27788324  0.74640570  0.90823623    -0.12000
H2569       H  0.30688463  0.78477655  0.89999612     0.12600
C2570       C  0.26701892  0.81970260  0.83289565    -0.22900
H2571       H  0.23925355  0.78076292  0.84125939     0.08200
C2572       C  0.21646749  0.74487578  0.88322037     0.04600
C2573       C  0.20026345  0.72541125  0.88135841    -0.20100
C2574       C  0.20590456  0.70450215  0.86784206    -0.12400
C2575       C  0.22884501  0.70324177  0.85618492     0.13300
C2576       C  0.24498835  0.72276995  0.85826265    -0.22800
C2577       C  0.20951046  0.76697661  0.89757990    -0.05900
H2578       H  0.18296546  0.72671594  0.89046443     0.14800
C2579       C  0.23661621  0.68179129  0.84119367    -0.16100
H2580       H  0.26239554  0.72205456  0.84924974     0.09100
H2581       H  0.26374746  0.83774815  0.84107166     0.07000
H2582       H  0.25115531  0.81541289  0.82132993     0.08200
H2583       H  0.28310110  0.82046603  0.82094885     0.07200
H2584       H  0.28030089  0.72825648  0.89998568     0.02100
H2585       H  0.26143087  0.74627817  0.91973385     0.02600
H2586       H  0.29370551  0.75009188  0.92005995     0.06100
H2587       H  0.19122521  0.76514784  0.90568045     0.05100
H2588       H  0.20946553  0.78310591  0.88562347    -0.00700
H2589       H  0.22266679  0.76986413  0.91247179     0.00800
H2590       H  0.25488635  0.68438821  0.83325818     0.04500
H2591       H  0.22382238  0.67903738  0.82596961     0.06400
H2592       H  0.23737182  0.66532856  0.85265424     0.07300
C2593       C  0.13556519  0.83681828  0.52298302    -0.22300
C2594       C  0.14108848  0.85894829  0.51211611     0.09600
C2595       C  0.14629332  0.87921903  0.52663505     0.10000
C2596       C  0.14703467  0.87656341  0.55189373    -0.17300
C2597       C  0.14248568  0.85408535  0.56307704    -0.27700
C2598       C  0.13606857  0.83400930  0.54821321     0.18400
C2599       C  0.14302763  0.85974718  0.48543610     0.12300
C2600       C  0.15114136  0.90358646  0.51543720    -0.12000
H2601       H  0.15151887  0.89215697  0.56289615     0.12600
C2602       C  0.13009554  0.80935821  0.55830305    -0.22900
H2603       H  0.13144714  0.82145195  0.51150387     0.08200
C2604       C  0.16527815  0.85523053  0.47389250     0.04600
C2605       C  0.16616530  0.85431350  0.44859452    -0.20100
C2606       C  0.14531932  0.85773706  0.43442666    -0.12400
C2607       C  0.12308757  0.86313922  0.44609663     0.13300
C2608       C  0.12221651  0.86362952  0.47152010    -0.22800
C2609       C  0.18799992  0.85075819  0.48829517    -0.05900
H2610       H  0.18322078  0.85021002  0.43984367     0.14800
C2611       C  0.10015451  0.86936854  0.43269178    -0.16100
H2612       H  0.10521501  0.86725620  0.48057842     0.09100
H2613       H  0.14587894  0.80190140  0.56816759     0.07000
H2614       H  0.12541167  0.79621952  0.54382554     0.08200
H2615       H  0.11423901  0.81064297  0.57054993     0.07200
H2616       H  0.13513082  0.90939359  0.50480753     0.02100
H2617       H  0.16704152  0.90257629  0.50324758     0.02600
H2618       H  0.15484223  0.91758934  0.52937627     0.06100
H2619       H  0.20379996  0.84727284  0.47639195     0.05100
H2620       H  0.18549356  0.83476309  0.50016853    -0.00700
H2621       H  0.19222072  0.86676525  0.49965113     0.00800
H2622       H  0.08631413  0.85521786  0.43607940     0.04500
H2623       H  0.10263850  0.87144368  0.41295492     0.06400
H2624       H  0.09314952  0.88696712  0.43938927     0.07300
C2625       C  0.15366798  0.02651538  0.62205552    -0.22300
C2626       C  0.14420488  0.01407284  0.64199048     0.09600
C2627       C  0.13598735  0.02714841  0.66229299     0.10000
C2628       C  0.13760313  0.05245701  0.66228469    -0.17300
C2629       C  0.14786499  0.06502892  0.64272565    -0.27700
C2630       C  0.15549336  0.05186519  0.62203375     0.18400
C2631       C  0.14504960  0.98730558  0.64224949     0.12300
C2632       C  0.12632448  0.01432235  0.68431564    -0.12000
H2633       H  0.13181252  0.06242782  0.67816068     0.12600
C2634       C  0.16513126  0.06371920  0.59945192    -0.22900
H2635       H  0.15993938  0.01632470  0.60649249     0.08200
C2636       C  0.12555329  0.97294928  0.63419917     0.04600
C2637       C  0.12702522  0.94762198  0.63628328    -0.20100
C2638       C  0.14767705  0.93643608  0.64601944    -0.12400
C2639       C  0.16712597  0.95105186  0.65424300     0.13300
C2640       C  0.16562330  0.97622639  0.65188272    -0.22800
C2641       C  0.10336751  0.98439100  0.62334190    -0.05900
H2642       H  0.11213784  0.93648691  0.63002919     0.14800
C2643       C  0.18929371  0.94114028  0.66671160    -0.16100
H2644       H  0.18038904  0.98743093  0.65831869     0.09100
H2645       H  0.15428621  0.05775775  0.58361659     0.07000
H2646       H  0.18423945  0.05826071  0.59661274     0.08200
H2647       H  0.16414720  0.08366181  0.59996394     0.07200
H2648       H  0.14050630  0.00235899  0.69197732     0.02100
H2649       H  0.11036346  0.00323606  0.67929836     0.02600
H2650       H  0.12071696  0.02726584  0.69863311     0.06100
H2651       H  0.08982394  0.97059611  0.61785781     0.05100
H2652       H  0.10850399  0.99496101  0.60705468    -0.00700
H2653       H  0.09477565  0.99666936  0.63670503     0.00800
H2654       H  0.20551610  0.94477029  0.65545311     0.04500
H2655       H  0.18836686  0.92155645  0.67049025     0.06400
H2656       H  0.19159806  0.95025962  0.68447697     0.07300
C2657       C  0.22754449  0.76572569  0.60674395    -0.22300
C2658       C  0.23546754  0.75573238  0.62865457     0.09600
C2659       C  0.22529523  0.76369891  0.65066081     0.10000
C2660       C  0.20715036  0.78138356  0.65019725    -0.17300
C2661       C  0.19945609  0.79173607  0.62832637    -0.27700
C2662       C  0.20963521  0.78368521  0.60624527     0.18400
C2663       C  0.25545118  0.73799162  0.62818367     0.12300
C2664       C  0.23409437  0.75413010  0.67462987    -0.12000
H2665       H  0.19937023  0.78768637  0.66707971     0.12600
C2666       C  0.20174317  0.79304019  0.58187155    -0.22900
H2667       H  0.23550723  0.75953527  0.58991324     0.08200
C2668       C  0.25118088  0.71286808  0.62862246     0.04600
C2669       C  0.27095391  0.69696030  0.62881393    -0.20100
C2670       C  0.29490060  0.70557120  0.62787430    -0.12400
C2671       C  0.29893992  0.73085091  0.62572530     0.13300
C2672       C  0.27915446  0.74667342  0.62659997    -0.22800
C2673       C  0.22582232  0.70287950  0.62856646    -0.05900
H2674       H  0.26766221  0.67766638  0.63002309     0.14800
C2675       C  0.32341734  0.74199154  0.62117248    -0.16100
H2676       H  0.28219691  0.76603374  0.62546104     0.09100
H2677       H  0.19496508  0.77775738  0.57071771     0.07000
H2678       H  0.21739534  0.80143692  0.57251087     0.08200
H2679       H  0.18711778  0.80662824  0.58295718     0.07200
H2680       H  0.25368260  0.75801008  0.67667675     0.02100
H2681       H  0.23119566  0.73431636  0.67567954     0.02600
H2682       H  0.22441999  0.76263324  0.69005751     0.06100
H2683       H  0.22573335  0.68278655  0.62859028     0.05100
H2684       H  0.21616254  0.70913084  0.61210683    -0.00700
H2685       H  0.21583359  0.70915262  0.64478644     0.00800
H2686       H  0.32244103  0.75363086  0.60482406     0.04500
H2687       H  0.33784166  0.72863247  0.61761265     0.06400
H2688       H  0.32863762  0.75344005  0.63683121     0.07300
C2689       C  0.10935281  0.77248010  0.73453566    -0.22300
C2690       C  0.13116499  0.76140795  0.74111506     0.09600
C2691       C  0.15300542  0.76895534  0.73031231     0.10000
C2692       C  0.15255070  0.78786555  0.71338847    -0.17300
C2693       C  0.13069208  0.79893679  0.70677710    -0.27700
C2694       C  0.10881127  0.79119049  0.71744234     0.18400
C2695       C  0.13066693  0.74246902  0.75997597     0.12300
C2696       C  0.17665279  0.75696081  0.73655282    -0.12000
H2697       H  0.16924800  0.79379791  0.70497888     0.12600
C2698       C  0.08472966  0.80263215  0.71174761    -0.22900
H2699       H  0.09267324  0.76665216  0.74302231     0.08200
C2700       C  0.13237054  0.74849694  0.78466033     0.04600
C2701       C  0.13124735  0.73008351  0.80202961    -0.20100
C2702       C  0.12844837  0.70563070  0.79538590    -0.12400
C2703       C  0.12674924  0.69969352  0.77040740     0.13300
C2704       C  0.12784672  0.71827340  0.75307827    -0.22800
C2705       C  0.13546647  0.77439311  0.79264253    -0.05900
H2706       H  0.13263828  0.73491124  0.82098194     0.14800
C2707       C  0.12438085  0.67397787  0.76163233    -0.16100
H2708       H  0.12657112  0.71395315  0.73397569     0.09100
H2709       H  0.07658652  0.80978977  0.72866313     0.07000
H2710       H  0.07242671  0.78880920  0.70393745     0.08200
H2711       H  0.08605232  0.81784955  0.69878002     0.07200
H2712       H  0.17572660  0.73741335  0.73200840     0.02100
H2713       H  0.18039591  0.75899217  0.75617910     0.02600
H2714       H  0.19198469  0.76502696  0.72638336     0.06100
H2715       H  0.13658621  0.77597551  0.81264698     0.05100
H2716       H  0.11985388  0.78534106  0.78638242    -0.00700
H2717       H  0.15234785  0.78195845  0.78485071     0.00800
H2718       H  0.12417099  0.67289417  0.74156022     0.04500
H2719       H  0.13991759  0.66307828  0.76810190     0.06400
H2720       H  0.10719419  0.66602083  0.76826411     0.07300
C2721       C  0.26559775  0.88964109  0.76929123    -0.22300
C2722       C  0.26423250  0.86965815  0.75374591     0.09600
C2723       C  0.28085195  0.85052338  0.75624635     0.10000
C2724       C  0.29847210  0.85173569  0.77444010    -0.17300
C2725       C  0.29975206  0.87154291  0.79038860    -0.27700
C2726       C  0.28310863  0.89085142  0.78767397     0.18400
C2727       C  0.24511772  0.86916782  0.73501801     0.12300
C2728       C  0.27983414  0.82876659  0.73984707    -0.12000
H2729       H  0.31108470  0.83685938  0.77648762     0.12600
C2730       C  0.28399440  0.91303650  0.80353581    -0.22900
H2731       H  0.25277842  0.90429314  0.76705633     0.08200
C2732       C  0.22171309  0.86052229  0.74022523     0.04600
C2733       C  0.20391776  0.86121050  0.72214014    -0.20100
C2734       C  0.20915425  0.86990111  0.69884318    -0.12400
C2735       C  0.23275407  0.87840746  0.69361011     0.13300
C2736       C  0.25042790  0.87790192  0.71183279    -0.22800
C2737       C  0.21567080  0.85027738  0.76475142    -0.05900
H2738       H  0.18594396  0.85442369  0.72603349     0.14800
C2739       C  0.23985277  0.88885028  0.66942995    -0.16100
H2740       H  0.26846355  0.88458733  0.70800757     0.09100
H2741       H  0.27968367  0.90813806  0.82251574     0.07000
H2742       H  0.27064230  0.92687035  0.79773387     0.08200
H2743       H  0.30225391  0.92135414  0.80264311     0.07200
H2744       H  0.28241680  0.83450010  0.72077515     0.02100
H2745       H  0.26201572  0.81970159  0.74163996     0.02600
H2746       H  0.29411506  0.81537556  0.74434411     0.06100
H2747       H  0.19660363  0.84404159  0.76571644     0.05100
H2748       H  0.21842052  0.86429739  0.77887296    -0.00700
H2749       H  0.22754829  0.83457518  0.76867540     0.00800
H2750       H  0.24702066  0.90743465  0.67205313     0.04500
H2751       H  0.22461992  0.89021473  0.65652684     0.06400
H2752       H  0.25419757  0.87747705  0.66117249     0.07300
C2753       C  0.47941036  0.37650651  0.65178481    -0.22300
C2754       C  0.49203551  0.35702941  0.64166256     0.09600
C2755       C  0.47917195  0.33782218  0.63088781     0.10000
C2756       C  0.45382772  0.33847913  0.63060360    -0.17300
C2757       C  0.44100128  0.35766926  0.64126998    -0.27700
C2758       C  0.45404379  0.37725295  0.65154736     0.18400
C2759       C  0.51874743  0.35680844  0.64312270     0.12300
C2760       C  0.49218037  0.31632932  0.62032336    -0.12000
H2761       H  0.44395437  0.32337343  0.62290780     0.12600
C2762       C  0.44207706  0.39950324  0.66182063    -0.22900
H2763       H  0.48946442  0.39129613  0.65986940     0.08200
C2764       C  0.53324029  0.36671224  0.62464622     0.04600
C2765       C  0.55851724  0.36547718  0.62665888    -0.20100
C2766       C  0.56963106  0.35483682  0.64688815    -0.12400
C2767       C  0.55490040  0.34493364  0.66549584     0.13300
C2768       C  0.52966640  0.34624178  0.66334698    -0.22800
C2769       C  0.52198581  0.37862644  0.60289404    -0.05900
H2770       H  0.56969825  0.37302641  0.61242574     0.14800
C2771       C  0.56468595  0.33188698  0.68737856    -0.16100
H2772       H  0.51834752  0.33853690  0.67739810     0.09100
H2773       H  0.44971947  0.41585623  0.65300545     0.07000
H2774       H  0.44561463  0.40056552  0.68157174     0.08200
H2775       H  0.42234219  0.40002411  0.65869986     0.07200
H2776       H  0.50301454  0.30729671  0.63461250     0.02100
H2777       H  0.50440119  0.32229643  0.60556757     0.02600
H2778       H  0.47937063  0.30283302  0.61272808     0.06100
H2779       H  0.53589638  0.38556899  0.59017617     0.05100
H2780       H  0.51062488  0.39409381  0.60880106    -0.00700
H2781       H  0.51052637  0.36542674  0.59301361     0.00800
H2782       H  0.55918321  0.34166273  0.70404938     0.04500
H2783       H  0.58452069  0.33001657  0.68749997     0.06400
H2784       H  0.55708156  0.31329869  0.68800536     0.07300
C2785       C  0.63690490  0.34280493  0.52103727    -0.22300
C2786       C  0.64613696  0.36335302  0.50963453     0.09600
C2787       C  0.65469160  0.38283547  0.52363885     0.10000
C2788       C  0.65508462  0.38073189  0.54897193    -0.17300
C2789       C  0.64704143  0.35954133  0.56066566    -0.27700
C2790       C  0.63706257  0.34055895  0.54630204     0.18400
C2791       C  0.64761697  0.36324199  0.48292383     0.12300
C2792       C  0.66354787  0.40571636  0.51180752    -0.12000
H2793       H  0.66227424  0.39555226  0.55959197     0.12600
C2794       C  0.62664810  0.31766988  0.55696356    -0.22900
H2795       H  0.63007287  0.32813181  0.50994771     0.08200
C2796       C  0.66833794  0.35433819  0.47102650     0.04600
C2797       C  0.66828704  0.35247853  0.44574721    -0.20100
C2798       C  0.64782141  0.35879743  0.43208299    -0.12400
C2799       C  0.62713687  0.36802245  0.44404186     0.13300
C2800       C  0.62734276  0.37015052  0.46939273    -0.22800
C2801       C  0.69026629  0.34622536  0.48505051    -0.05900
H2802       H  0.68412262  0.34536705  0.43662680     0.14800
C2803       C  0.60508915  0.37614018  0.43023156    -0.16100
H2804       H  0.61148929  0.37686150  0.47878853     0.09100
H2805       H  0.64104562  0.30711232  0.56612104     0.07000
H2806       H  0.61869745  0.30573118  0.54287565     0.08200
H2807       H  0.61199127  0.32221916  0.56992008     0.07200
H2808       H  0.64878176  0.41377012  0.50084590     0.02100
H2809       H  0.67912998  0.40169194  0.49982647     0.02600
H2810       H  0.66942566  0.41932480  0.52538354     0.06100
H2811       H  0.70481492  0.33954964  0.47290958     0.05100
H2812       H  0.68523731  0.33131180  0.49751938    -0.00700
H2813       H  0.69762911  0.36153324  0.49574965     0.00800
H2814       H  0.59667320  0.36052983  0.42082643     0.04500
H2815       H  0.61025666  0.39011488  0.41675976     0.06400
H2816       H  0.59122914  0.38409110  0.44241384     0.07300
C2817       C  0.53724680  0.13151422  0.87229781    -0.22300
C2818       C  0.52291956  0.14039439  0.85336790     0.09600
C2819       C  0.53393435  0.15050748  0.83272185     0.10000
C2820       C  0.55912440  0.15216555  0.83173720    -0.17300
C2821       C  0.57358700  0.14400967  0.85092720    -0.27700
C2822       C  0.56258849  0.13284573  0.87119871     0.18400
C2823       C  0.49634704  0.14047355  0.85576434     0.12300
C2824       C  0.51905615  0.15989942  0.81188136    -0.12000
H2825       H  0.56757597  0.16049410  0.81611259     0.12600
C2826       C  0.57683976  0.12143003  0.89146228    -0.22900
H2827       H  0.52860424  0.12348211  0.88796514     0.08200
C2828       C  0.48203435  0.12128770  0.84711312     0.04600
C2829       C  0.45683725  0.12414487  0.84601377    -0.20100
C2830       C  0.44560293  0.14589407  0.85319558    -0.12400
C2831       C  0.46023831  0.16463686  0.86320757     0.13300
C2832       C  0.48535523  0.16152121  0.86433956    -0.22800
C2833       C  0.49347247  0.09810984  0.83850319    -0.05900
H2834       H  0.44598499  0.10948933  0.83880748     0.14800
C2835       C  0.45005475  0.18825654  0.87237178    -0.16100
H2836       H  0.49671990  0.17606193  0.87102582     0.09100
H2837       H  0.57132478  0.10221319  0.89344706     0.07000
H2838       H  0.57303757  0.13107756  0.90866735     0.08200
H2839       H  0.59660476  0.12151118  0.88830638     0.07200
H2840       H  0.50705012  0.17469908  0.81819043     0.02100
H2841       H  0.50784667  0.14506284  0.80429314     0.02600
H2842       H  0.53059700  0.16713619  0.79711521     0.06100
H2843       H  0.47970971  0.08485175  0.83229527     0.05100
H2844       H  0.50389207  0.08977825  0.85351238    -0.00700
H2845       H  0.50587902  0.10187705  0.82317351     0.00800
H2846       H  0.46429273  0.20010316  0.88017666     0.04500
H2847       H  0.43662771  0.18475478  0.88687713     0.06400
H2848       H  0.44157477  0.19841726  0.85727811     0.07300
C2849       C  0.66068460  0.16464223  0.97265176    -0.22300
C2850       C  0.65342665  0.14265938  0.98287477     0.09600
C2851       C  0.64684764  0.12321702  0.96773493     0.10000
C2852       C  0.64804195  0.12609913  0.94250897    -0.17300
C2853       C  0.65513966  0.14818726  0.93211382    -0.27700
C2854       C  0.66153274  0.16775274  0.94747119     0.18400
C2855       C  0.65231025  0.14082744  0.00956290     0.12300
C2856       C  0.63855196  0.09950950  0.97824651    -0.12000
H2857       H  0.64315677  0.11111004  0.93082875     0.12600
C2858       C  0.67013193  0.19166256  0.93760035    -0.22900
H2859       H  0.66567297  0.17945403  0.98451668     0.08200
C2860       C  0.67293543  0.13518939  0.02346675     0.04600
C2861       C  0.67138943  0.13587805  0.04882414    -0.20100
C2862       C  0.64968299  0.14210147  0.06048991    -0.12400
C2863       C  0.62871060  0.14623438  0.04646541     0.13300
C2864       C  0.63039335  0.14595205  0.02115354    -0.22800
C2865       C  0.69657864  0.12884430  0.01152108    -0.05900
H2866       H  0.68741542  0.13241004  0.05958010     0.14800
C2867       C  0.60418933  0.15019785  0.05754051    -0.16100
H2868       H  0.61448952  0.14977630  0.01035155     0.09100
H2869       H  0.67572064  0.20426050  0.95223913     0.07000
H2870       H  0.65542467  0.20057351  0.92727268     0.08200
H2871       H  0.68596507  0.18865467  0.92568311     0.07200
H2872       H  0.62208433  0.10242219  0.98935562     0.02100
H2873       H  0.65300931  0.09177300  0.98982115     0.02600
H2874       H  0.63414711  0.08614070  0.96389452     0.06100
H2875       H  0.71087410  0.12478606  0.02504013     0.05100
H2876       H  0.70284194  0.14419595  0.00020013    -0.00700
H2877       H  0.69416920  0.11263713  0.99989404     0.00800
H2878       H  0.59765694  0.16865169  0.05310286     0.04500
H2879       H  0.60429633  0.14787966  0.07740938     0.06400
H2880       H  0.59126191  0.13672093  0.05012329     0.07300
C2881       C  0.63566406  0.24674747  0.77685065    -0.22300
C2882       C  0.63861241  0.24003286  0.75264729     0.09600
C2883       C  0.64149018  0.21550139  0.74648486     0.10000
C2884       C  0.64104579  0.19803902  0.76485579    -0.17300
C2885       C  0.63818285  0.20456702  0.78932625    -0.27700
C2886       C  0.63552944  0.22940894  0.79535932     0.18400
C2887       C  0.63893804  0.25923657  0.73416454     0.12300
C2888       C  0.64531115  0.20782151  0.72059556    -0.12000
H2889       H  0.64293907  0.17915830  0.76000779     0.12600
C2890       C  0.63333808  0.23809959  0.82112712    -0.22900
H2891       H  0.63366948  0.26576427  0.78124359     0.08200
C2892       C  0.61752936  0.26683674  0.72264453     0.04600
C2893       C  0.61859955  0.28584469  0.70596900    -0.20100
C2894       C  0.64047554  0.29768389  0.70097383    -0.12400
C2895       C  0.66209822  0.28955066  0.71202627     0.13300
C2896       C  0.66094291  0.27054406  0.72875039    -0.22800
C2897       C  0.59354950  0.25518371  0.72826889    -0.05900
H2898       H  0.60217528  0.29176662  0.69710218     0.14800
C2899       C  0.68673910  0.29964039  0.70598311    -0.16100
H2900       H  0.67735459  0.26434696  0.73752257     0.09100
H2901       H  0.61653152  0.23093300  0.82941208     0.07000
H2902       H  0.63246286  0.25814668  0.82223439     0.08200
H2903       H  0.64932491  0.23217681  0.83169582     0.07200
H2904       H  0.66189384  0.21651324  0.71334418     0.02100
H2905       H  0.62960352  0.21331631  0.70939211     0.02600
H2906       H  0.64746758  0.18791067  0.71896506     0.06100
H2907       H  0.57859927  0.26345165  0.71770183     0.05100
H2908       H  0.58936869  0.25738268  0.74779226    -0.00700
H2909       H  0.59420391  0.23562066  0.72383817     0.00800
H2910       H  0.69474413  0.30812357  0.72234525     0.04500
H2911       H  0.68648203  0.31320415  0.69126711     0.06400
H2912       H  0.69871927  0.28470620  0.69989680     0.07300
C2913       C  0.98029518  0.37705678  0.86585164    -0.22300
C2914       C  0.99437998  0.35788794  0.85713653     0.09600
C2915       C  0.98304740  0.33683769  0.84824853     0.10000
C2916       C  0.95777523  0.33595958  0.84698239    -0.17300
C2917       C  0.94353779  0.35551082  0.85476537    -0.27700
C2918       C  0.95492899  0.37593497  0.86527702     0.18400
C2919       C  0.02104214  0.35983065  0.85760430     0.12300
C2920       C  0.99766767  0.31540659  0.83986543    -0.12000
H2921       H  0.94911118  0.32013695  0.83928250     0.12600
C2922       C  0.94113899  0.39631160  0.87701138    -0.22900
H2923       H  0.98915201  0.39284674  0.87338919     0.08200
C2924       C  0.03395477  0.36955066  0.83793128     0.04600
C2925       C  0.05926184  0.36786469  0.83764795    -0.20100
C2926       C  0.07207781  0.35649719  0.85654342    -0.12400
C2927       C  0.05889384  0.34801200  0.87699940     0.13300
C2928       C  0.03357200  0.34983305  0.87713328    -0.22800
C2929       C  0.02093127  0.38111328  0.81697007    -0.05900
H2930       H  0.06898092  0.37493209  0.82216392     0.14800
C2931       C  0.07091362  0.33645765  0.89859490    -0.16100
H2932       H  0.02331678  0.34260868  0.89221731     0.09100
H2933       H  0.94511801  0.41348043  0.86743833     0.07000
H2934       H  0.94698831  0.39812242  0.89615373     0.08200
H2935       H  0.92133776  0.39345146  0.87721355     0.07200
H2936       H  0.00877304  0.30843499  0.85507448     0.02100
H2937       H  0.00976570  0.32086667  0.82480114     0.02600
H2938       H  0.98594616  0.30043430  0.83336577     0.06100
H2939       H  0.03372195  0.38781319  0.80300303     0.05100
H2940       H  0.01011161  0.39670643  0.82353277    -0.00700
H2941       H  0.00868502  0.36774216  0.80832326     0.00800
H2942       H  0.05762429  0.33138543  0.91278569     0.04500
H2943       H  0.08390429  0.34933341  0.90690614     0.06400
H2944       H  0.08036092  0.31964552  0.89301494     0.07300
C2945       C  0.88303389  0.35864131  0.96717686    -0.22300
C2946       C  0.86144903  0.35851647  0.98036278     0.09600
C2947       C  0.83913094  0.35772132  0.96809324     0.10000
C2948       C  0.83887462  0.35642923  0.94276762    -0.17300
C2949       C  0.86045492  0.35573930  0.92932870    -0.27700
C2950       C  0.88290777  0.35724629  0.94178445     0.18400
C2951       C  0.86243885  0.35792211  0.00710282     0.12300
C2952       C  0.81558250  0.35786185  0.98180760    -0.12000
H2953       H  0.82164931  0.35535189  0.93347517     0.12600
C2954       C  0.90682292  0.35782065  0.92867434    -0.22900
H2955       H  0.90004567  0.35939079  0.97687557     0.08200
C2956       C  0.86309406  0.33576882  0.01962891     0.04600
C2957       C  0.86102657  0.33573895  0.04489768    -0.20100
C2958       C  0.85841973  0.35739819  0.05808939    -0.12400
C2959       C  0.85947585  0.37976669  0.04543503     0.13300
C2960       C  0.86129219  0.37964918  0.02005498    -0.22800
C2961       C  0.86552804  0.31213884  0.00622460    -0.05900
H2962       H  0.86075849  0.31853512  0.05428482     0.14800
C2963       C  0.85901579  0.40383166  0.05830114    -0.16100
H2964       H  0.86127519  0.39658458  0.01015758     0.09100
H2965       H  0.91006905  0.34033818  0.91935668     0.07000
H2966       H  0.92217761  0.36079399  0.94128536     0.08200
H2967       H  0.90689141  0.37281506  0.91533478     0.07200
H2968       H  0.81421172  0.37466345  0.99273542     0.02100
H2969       H  0.81469628  0.34196114  0.99403337     0.02600
H2970       H  0.79975937  0.35711377  0.96945362     0.06100
H2971       H  0.86579226  0.29644461  0.01875868     0.05100
H2972       H  0.88266160  0.31204810  0.99575638    -0.00700
H2973       H  0.85009893  0.30978336  0.99359485     0.00800
H2974       H  0.87368055  0.40452811  0.07201368     0.04500
H2975       H  0.84123502  0.40665129  0.06714058     0.06400
H2976       H  0.86183611  0.41912832  0.04558350     0.07300
C2977       C  0.78767100  0.35161132  0.75186987    -0.22300
C2978       C  0.77425978  0.37274530  0.74789483     0.09600
C2979       C  0.77920357  0.39361886  0.76178327     0.10000
C2980       C  0.79706144  0.39270524  0.77981244    -0.17300
C2981       C  0.81052214  0.37159733  0.78386561    -0.27700
C2982       C  0.80592076  0.35079209  0.76954025     0.18400
C2983       C  0.75440818  0.37239403  0.72983265     0.12300
C2984       C  0.76587880  0.41695658  0.75731170    -0.12000
H2985       H  0.80071042  0.40863826  0.79067599     0.12600
C2986       C  0.81949448  0.32742117  0.77337574    -0.22900
H2987       H  0.78362610  0.33561661  0.74124284     0.08200
C2988       C  0.75894982  0.37262103  0.70473173     0.04600
C2989       C  0.73938924  0.37256908  0.68852048    -0.20100
C2990       C  0.71530156  0.37273003  0.69676901    -0.12400
C2991       C  0.71088729  0.37256413  0.72210270     0.13300
C2992       C  0.73052326  0.37213885  0.73818923    -0.22800
C2993       C  0.78440133  0.37342645  0.69507358    -0.05900
H2994       H  0.74298865  0.37269352  0.66923788     0.14800
C2995       C  0.68571171  0.37232140  0.73257629    -0.16100
H2996       H  0.72728061  0.37177916  0.75753337     0.09100
H2997       H  0.83894026  0.32999042  0.76916213     0.07000
H2998       H  0.81264861  0.31274771  0.76145596     0.08200
H2999       H  0.81747881  0.32137627  0.79243304     0.07200
H3000       H  0.74629589  0.41451251  0.76088122     0.02100
H3001       H  0.76848185  0.42265280  0.73822192     0.02600
H3002       H  0.77252546  0.43172581  0.76921490     0.06100
H3003       H  0.78473591  0.37412375  0.67498899     0.05100
H3004       H  0.79444152  0.35704801  0.70085444    -0.00700
H3005       H  0.79376485  0.38976813  0.70207182     0.00800
H3006       H  0.68594095  0.37125238  0.75264517     0.04500
H3007       H  0.67564558  0.35634572  0.72578143     0.06400
H3008       H  0.67605365  0.38921058  0.72765308     0.07300
C3009       C  0.75698672  0.28860673  0.86610811    -0.22300
C3010       C  0.76350569  0.26451863  0.86181015     0.09600
C3011       C  0.78783333  0.25854012  0.85721196     0.10000
C3012       C  0.80523393  0.27694320  0.85685665    -0.17300
C3013       C  0.79882140  0.30118952  0.86086976    -0.27700
C3014       C  0.77437500  0.30710371  0.86575704     0.18400
C3015       C  0.74462954  0.24567601  0.86244079     0.12300
C3016       C  0.79540200  0.23271774  0.85287266    -0.12000
H3017       H  0.82394324  0.27240717  0.85313938     0.12600
C3018       C  0.76661147  0.33260546  0.87149119    -0.22900
H3019       H  0.73822882  0.29287120  0.86985901     0.08200
C3020       C  0.73723954  0.23511486  0.88444159     0.04600
C3021       C  0.72010999  0.21645286  0.88405040    -0.20100
C3022       C  0.70991785  0.20857224  0.86222073    -0.12400
C3023       C  0.71742939  0.21911483  0.84010333     0.13300
C3024       C  0.73465942  0.23767948  0.84056117    -0.22800
C3025       C  0.74741467  0.24358516  0.90826269    -0.05900
H3026       H  0.71431957  0.20830728  0.90088480     0.14800
C3027       C  0.70838777  0.21074497  0.81570059    -0.16100
H3028       H  0.74066507  0.24573699  0.82370895     0.09100
H3029       H  0.77719477  0.33961017  0.88707416     0.07000
H3030       H  0.74714352  0.33353737  0.87634427     0.08200
H3031       H  0.76943182  0.34442806  0.85552807     0.07200
H3032       H  0.78599997  0.22547029  0.83666891     0.02100
H3033       H  0.79066266  0.22149538  0.86883993     0.02600
H3034       H  0.81518537  0.23117882  0.84978753     0.06100
H3035       H  0.73976425  0.23327633  0.92371938     0.05100
H3036       H  0.74307448  0.26300341  0.91097697    -0.00700
H3037       H  0.76733933  0.24119486  0.90837697     0.00800
H3038       H  0.69867397  0.22578213  0.80660485     0.04500
H3039       H  0.69608552  0.19497343  0.81670951     0.06400
H3040       H  0.72399621  0.20528456  0.80429646     0.07300
C3041       C  0.85461675  0.12495219  0.52076628    -0.22300
C3042       C  0.86605284  0.14339848  0.50768089     0.09600
C3043       C  0.87623782  0.16323767  0.52008196     0.10000
C3044       C  0.87450838  0.16433086  0.54536450    -0.17300
C3045       C  0.86200622  0.14653198  0.55851328    -0.27700
C3046       C  0.85228061  0.12632244  0.54606698     0.18400
C3047       C  0.86358226  0.14377392  0.48103635     0.12300
C3048       C  0.88788756  0.18384082  0.50653853    -0.12000
H3049       H  0.88195402  0.17982775  0.55481404     0.12600
C3050       C  0.83954740  0.10613001  0.55923201    -0.22900
H3051       H  0.84661211  0.10993745  0.51100075     0.08200
C3052       C  0.88178359  0.13528004  0.46530872     0.04600
C3053       C  0.87883828  0.13816790  0.44019058    -0.20100
C3054       C  0.85801585  0.14916812  0.43061062    -0.12400
C3055       C  0.83975706  0.15751673  0.44657489     0.13300
C3056       C  0.84272326  0.15438913  0.47150268    -0.22800
C3057       C  0.90408461  0.12304951  0.47499460    -0.05900
H3058       H  0.89270272  0.13163300  0.42796933     0.14800
C3059       C  0.81744594  0.17091569  0.43841040    -0.16100
H3060       H  0.82893577  0.16107934  0.48376447     0.09100
H3061       H  0.83432714  0.09125303  0.54675826     0.07000
H3062       H  0.82275301  0.11297066  0.56780194     0.08200
H3063       H  0.85166583  0.09845507  0.57328014     0.07200
H3064       H  0.87451320  0.19230055  0.49418327     0.02100
H3065       H  0.90339747  0.17708112  0.49576935     0.02600
H3066       H  0.89468540  0.19806428  0.51900846     0.06100
H3067       H  0.91641394  0.11732624  0.46019329     0.05100
H3068       H  0.89881292  0.10673141  0.48544074    -0.00700
H3069       H  0.91414494  0.13556530  0.48703527     0.00800
H3070       H  0.80109888  0.16029673  0.44322433     0.04500
H3071       H  0.81704158  0.17465422  0.41881254     0.06400
H3072       H  0.81656762  0.18870453  0.44772658     0.07300
C3073       C  0.03358855  0.14775198  0.62008613    -0.22300
C3074       C  0.02016190  0.14927788  0.64147905     0.09600
C3075       C  0.03203507  0.15006284  0.66398644     0.10000
C3076       C  0.05730943  0.14955415  0.66462946    -0.17300
C3077       C  0.07106495  0.14846375  0.64324717    -0.27700
C3078       C  0.05895845  0.14741902  0.62058633     0.18400
C3079       C  0.99355753  0.14960436  0.64004202     0.12300
C3080       C  0.01800792  0.15178993  0.68730906    -0.12000
H3081       H  0.06634269  0.15055175  0.68199459     0.12600
C3082       C  0.07235926  0.14554967  0.59687696    -0.22900
H3083       H  0.02410595  0.14694411  0.60293762     0.08200
C3084       C  0.98071060  0.17114968  0.63589961     0.04600
C3085       C  0.95537482  0.17059357  0.63576469    -0.20100
C3086       C  0.94245749  0.14904452  0.64027332    -0.12400
C3087       C  0.95576158  0.12747569  0.64470113     0.13300
C3088       C  0.98107953  0.12805751  0.64411767    -0.22800
C3089       C  0.99377296  0.19478917  0.63224275    -0.05900
H3090       H  0.94568550  0.18734206  0.63271229     0.14800
C3091       C  0.94385599  0.10379382  0.65058868    -0.16100
H3092       H  0.99133968  0.11170222  0.64754166     0.09100
H3093       H  0.08289850  0.16230346  0.59355190     0.07000
H3094       H  0.05980966  0.14326052  0.58134791     0.08200
H3095       H  0.08463767  0.12966412  0.59719262     0.07200
H3096       H  0.00617607  0.13569935  0.68934761     0.02100
H3097       H  0.00667689  0.16836465  0.68720129     0.02600
H3098       H  0.03014316  0.15264413  0.70329932     0.06100
H3099       H  0.98099424  0.21004780  0.62956704     0.05100
H3100       H  0.00557123  0.19359234  0.61604181    -0.00700
H3101       H  0.00505757  0.19887144  0.64835871     0.00800
H3102       H  0.93147538  0.09858315  0.63566470     0.04500
H3103       H  0.93398011  0.10555520  0.66797308     0.06400
H3104       H  0.95717101  0.08892512  0.65284861     0.07300
C3105       C  0.77868111  0.23976276  0.60214949    -0.22300
C3106       C  0.76183939  0.24157385  0.62101281     0.09600
C3107       C  0.76284012  0.22496052  0.64036509     0.10000
C3108       C  0.78114875  0.20738111  0.64077549    -0.17300
C3109       C  0.79853669  0.20586956  0.62225022    -0.27700
C3110       C  0.79698695  0.22209597  0.60243119     0.18400
C3111       C  0.74346249  0.26117801  0.62037024     0.12300
C3112       C  0.74480940  0.22599617  0.66078808    -0.12000
H3113       H  0.78207450  0.19493714  0.65589312     0.12600
C3114       C  0.81397745  0.22050562  0.58116419    -0.22900
H3115       H  0.77750091  0.25234666  0.58715072     0.08200
C3116       C  0.74944226  0.28529946  0.62632436     0.04600
C3117       C  0.73119233  0.30299933  0.62668296    -0.20100
C3118       C  0.70700034  0.29702063  0.62174851    -0.12400
C3119       C  0.70116086  0.27291033  0.61524159     0.13300
C3120       C  0.71952094  0.25536452  0.61445725    -0.22800
C3121       C  0.77493030  0.29217115  0.63305633    -0.05900
H3122       H  0.73568470  0.32141882  0.63173372     0.14800
C3123       C  0.67572883  0.26560533  0.60865341    -0.16100
H3124       H  0.71514005  0.23686668  0.60964442     0.09100
H3125       H  0.83268619  0.22484539  0.58695199     0.07000
H3126       H  0.80900395  0.23348952  0.56666323     0.08200
H3127       H  0.81338110  0.20201132  0.57331755     0.07200
H3128       H  0.72629756  0.22285776  0.65369871     0.02100
H3129       H  0.74556957  0.24401567  0.66963938     0.02600
H3130       H  0.74851222  0.21201964  0.67473663     0.06100
H3131       H  0.77640671  0.31164833  0.63778271     0.05100
H3132       H  0.78726053  0.28856469  0.61763196    -0.00700
H3133       H  0.78087144  0.28142517  0.64895182     0.00800
H3134       H  0.66893570  0.27728036  0.59379034     0.04500
H3135       H  0.66369271  0.26726681  0.62462001     0.06400
H3136       H  0.67483415  0.24652192  0.60242019     0.07300
C3137       C  0.78421043  0.15273972  0.73658609    -0.22300
C3138       C  0.77231141  0.13075580  0.74063133     0.09600
C3139       C  0.77728154  0.11063291  0.72576855     0.10000
C3140       C  0.79412998  0.11298354  0.70696319    -0.17300
C3141       C  0.80623790  0.13492480  0.70296190    -0.27700
C3142       C  0.80122339  0.15511392  0.71794237     0.18400
C3143       C  0.75335494  0.12985870  0.75938286     0.12300
C3144       C  0.76486718  0.08673370  0.72987238    -0.12000
H3145       H  0.79810487  0.09755205  0.69551061     0.12600
C3146       C  0.81298762  0.17940955  0.71380836    -0.22900
H3147       H  0.77989275  0.16817035  0.74791443     0.08200
C3148       C  0.75889505  0.12682068  0.78407441     0.04600
C3149       C  0.74015131  0.12760451  0.80117722    -0.20100
C3150       C  0.71599759  0.13108335  0.79403186    -0.12400
C3151       C  0.71059452  0.13388121  0.76908345     0.13300
C3152       C  0.72939808  0.13322385  0.75214730    -0.22800
C3153       C  0.78451899  0.12264442  0.79226320    -0.05900
H3154       H  0.74436694  0.12539484  0.82019897     0.14800
C3155       C  0.68538248  0.13888312  0.76008566    -0.16100
H3156       H  0.72550044  0.13577220  0.73308315     0.09100
H3157       H  0.83274973  0.17818869  0.71701220     0.07000
H3158       H  0.80574480  0.19342803  0.72626001     0.08200
H3159       H  0.80960032  0.18551431  0.69496896     0.07200
H3160       H  0.74503613  0.08887421  0.72768621     0.02100
H3161       H  0.76879280  0.08018935  0.74845243     0.02600
H3162       H  0.77110263  0.07276512  0.71683691     0.06100
H3163       H  0.78568852  0.12037086  0.81219659     0.05100
H3164       H  0.79597503  0.13829248  0.78707333    -0.00700
H3165       H  0.79173169  0.10601449  0.78360539     0.00800
H3166       H  0.68488762  0.14161460  0.74017869     0.04500
H3167       H  0.67859252  0.15566227  0.76863301     0.06400
H3168       H  0.67325248  0.12346475  0.76427885     0.07300
C3169       C  0.89868447  0.22711761  0.73154270    -0.22300
C3170       C  0.88187927  0.24595521  0.73199131     0.09600
C3171       C  0.86440068  0.24792156  0.71358761     0.10000
C3172       C  0.86360509  0.23033513  0.69535521    -0.17300
C3173       C  0.87986858  0.21076653  0.69517649    -0.27700
C3174       C  0.89797913  0.20940343  0.71340528     0.18400
C3175       C  0.88226362  0.26293080  0.75251517     0.12300
C3176       C  0.84645846  0.26843981  0.71341395    -0.12000
H3177       H  0.84978812  0.23160914  0.68150646     0.12600
C3178       C  0.91681142  0.18966471  0.71400270    -0.22900
H3179       H  0.91212352  0.22606043  0.74579359     0.08200
C3180       C  0.86846922  0.25847588  0.77341734     0.04600
C3181       C  0.86829223  0.27566752  0.79198416    -0.20100
C3182       C  0.88181064  0.29720018  0.79030417    -0.12400
C3183       C  0.89644802  0.30109157  0.76946817     0.13300
C3184       C  0.89634101  0.28384312  0.75083755    -0.22800
C3185       C  0.85386040  0.23559604  0.77604653    -0.05900
H3186       H  0.85720264  0.27228084  0.80778765     0.14800
C3187       C  0.91227750  0.32311062  0.76640952    -0.16100
H3188       H  0.90707538  0.28675499  0.73468198     0.09100
H3189       H  0.93030857  0.19265513  0.72859008     0.07000
H3190       H  0.92673284  0.18912820  0.69653882     0.08200
H3191       H  0.90812835  0.17192236  0.71755841     0.07200
H3192       H  0.85621990  0.28596274  0.71238105     0.02100
H3193       H  0.83543815  0.26806359  0.73019405     0.02600
H3194       H  0.83397809  0.26727857  0.69770981     0.06100
H3195       H  0.84409113  0.23495460  0.79359585     0.05100
H3196       H  0.86602781  0.21965412  0.77509909    -0.00700
H3197       H  0.84029216  0.23437377  0.76129998     0.00800
H3198       H  0.92290413  0.32239535  0.74936707     0.04500
H3199       H  0.92535053  0.32430658  0.78161864     0.06400
H3200       H  0.90097216  0.33967636  0.76566114     0.07300
C3201       C  0.52507093  0.64158913  0.66336291    -0.22300
C3202       C  0.51318551  0.64730714  0.64172873     0.09600
C3203       C  0.52687764  0.65348319  0.62109310     0.10000
C3204       C  0.55224220  0.65396999  0.62263262    -0.17300
C3205       C  0.56420006  0.64835173  0.64433082    -0.27700
C3206       C  0.55037274  0.64228038  0.66507555     0.18400
C3207       C  0.48635796  0.64792252  0.64155892     0.12300
C3208       C  0.51469174  0.65938931  0.59745672    -0.12000
H3209       H  0.56281652  0.65879245  0.60683586     0.12600
C3210       C  0.56134188  0.63771852  0.68966539    -0.22900
H3211       H  0.51444732  0.63724849  0.67927508     0.08200
C3212       C  0.47240596  0.62654214  0.64108122     0.04600
C3213       C  0.44705836  0.62814351  0.64227222    -0.20100
C3214       C  0.43542670  0.65067327  0.64338549    -0.12400
C3215       C  0.44944440  0.67211112  0.64344608     0.13300
C3216       C  0.47473300  0.67041281  0.64266443    -0.22800
C3217       C  0.48428195  0.60212771  0.63898501    -0.05900
H3218       H  0.43625568  0.61178211  0.64224336     0.14800
C3219       C  0.43850507  0.69704931  0.64501680    -0.16100
H3220       H  0.48552284  0.68679346  0.64317374     0.09100
H3221       H  0.55723235  0.61893018  0.69544094     0.07000
H3222       H  0.55337172  0.65046756  0.70299723     0.08200
H3223       H  0.58114124  0.64034200  0.69031830     0.07200
H3224       H  0.50299922  0.67555110  0.59964479     0.02100
H3225       H  0.50344258  0.64381777  0.59157241     0.02600
H3226       H  0.52804369  0.66330090  0.58296894     0.06100
H3227       H  0.47074474  0.58730053  0.63828921     0.05100
H3228       H  0.49621890  0.59894561  0.65480465    -0.00700
H3229       H  0.49523653  0.60138646  0.62215993     0.00800
H3230       H  0.44531500  0.70635131  0.66147931     0.04500
H3231       H  0.41853537  0.69690944  0.64593895     0.06400
H3232       H  0.44385405  0.70771187  0.62885995     0.07300
C3233       C  0.66695058  0.52832446  0.63605753    -0.22300
C3234       C  0.64520631  0.51669902  0.64193513     0.09600
C3235       C  0.62480449  0.53069615  0.64826995     0.10000
C3236       C  0.62669774  0.55602786  0.64862343    -0.17300
C3237       C  0.64843112  0.56767002  0.64264391    -0.27700
C3238       C  0.66894035  0.55360366  0.63644609     0.18400
C3239       C  0.64486634  0.48985570  0.64272963     0.12300
C3240       C  0.60096895  0.51898581  0.65432607    -0.12000
H3241       H  0.61110445  0.56684972  0.65353186     0.12600
C3242       C  0.69352667  0.56429820  0.63133708    -0.22900
H3243       H  0.68274325  0.51751164  0.63178420     0.08200
C3244       C  0.64717609  0.47568564  0.62157642     0.04600
C3245       C  0.64896263  0.45040957  0.62362183    -0.20100
C3246       C  0.64806988  0.43898406  0.64627305    -0.12400
C3247       C  0.64524215  0.45319671  0.66743691     0.13300
C3248       C  0.64377028  0.47843200  0.66533406    -0.22800
C3249       C  0.64743168  0.48717039  0.59686103    -0.05900
H3250       H  0.65102939  0.43947283  0.60746554     0.14800
C3251       C  0.64478088  0.44268536  0.69262144    -0.16100
H3252       H  0.64239729  0.48937187  0.68157309     0.09100
H3253       H  0.69896144  0.55987982  0.61250679     0.07000
H3254       H  0.70699010  0.55637927  0.64396454     0.08200
H3255       H  0.69433626  0.58414512  0.63366276     0.07200
H3256       H  0.60283414  0.50753586  0.67068895     0.02100
H3257       H  0.59491321  0.50761996  0.63890276     0.02600
H3258       H  0.58671577  0.53264820  0.65801863     0.06100
H3259       H  0.64842162  0.47338728  0.58226265     0.05100
H3260       H  0.66333265  0.49925133  0.59499208    -0.00700
H3261       H  0.63064536  0.49786145  0.59422495     0.00800
H3262       H  0.65955569  0.45082100  0.70353783     0.04500
H3263       H  0.64728707  0.42284570  0.69307465     0.06400
H3264       H  0.62721552  0.44699905  0.70134240     0.07300
C3265       C  0.64207839  0.66597952  0.52052557    -0.22300
C3266       C  0.64473933  0.64295383  0.51029803     0.09600
C3267       C  0.64746806  0.62260365  0.52542249     0.10000
C3268       C  0.64787649  0.62586262  0.55061666    -0.17300
C3269       C  0.64538274  0.64896482  0.56086484    -0.27700
C3270       C  0.64241321  0.66931350  0.54562995     0.18400
C3271       C  0.64609641  0.64108783  0.48366032     0.12300
C3272       C  0.64981277  0.59755427  0.51496457    -0.12000
H3273       H  0.65023215  0.61035519  0.56239091     0.12600
C3274       C  0.64061451  0.69489123  0.55497015    -0.22900
H3275       H  0.64032119  0.68157364  0.50875928     0.08200
C3276       C  0.62544001  0.64407991  0.46900199     0.04600
C3277       C  0.62815686  0.64507609  0.44380683    -0.20100
C3278       C  0.65100652  0.64305173  0.43303898    -0.12400
C3279       C  0.67168760  0.63958977  0.44773408     0.13300
C3280       C  0.66888453  0.63852190  0.47290376    -0.22800
C3281       C  0.60060847  0.64630950  0.47994921    -0.05900
H3282       H  0.61242541  0.64776758  0.43243934     0.14800
C3283       C  0.69705439  0.63828392  0.43778519    -0.16100
H3284       H  0.68473131  0.63658692  0.48431512     0.09100
H3285       H  0.62302950  0.70280543  0.54940845     0.07000
H3286       H  0.65542251  0.70593393  0.54708618     0.08200
H3287       H  0.64203804  0.69625951  0.57488629     0.07200
H3288       H  0.66624577  0.59641571  0.50350450     0.02100
H3289       H  0.63366674  0.59335897  0.50377695     0.02600
H3290       H  0.65126991  0.58361438  0.52935698     0.06100
H3291       H  0.58640189  0.64797035  0.46583584     0.05100
H3292       H  0.59968101  0.66260251  0.49164559    -0.00700
H3293       H  0.59661418  0.63000851  0.49097607     0.00800
H3294       H  0.70814148  0.65298238  0.44584377     0.04500
H3295       H  0.69796496  0.64031153  0.41789461     0.06400
H3296       H  0.70523928  0.62060620  0.44264666     0.07300
C3297       C  0.84853922  0.52563081  0.83200546    -0.22300
C3298       C  0.86080279  0.51553282  0.85171033     0.09600
C3299       C  0.87046246  0.53074365  0.86977340     0.10000
C3300       C  0.86702407  0.55585727  0.86801603    -0.17300
C3301       C  0.85442103  0.56601710  0.84843769    -0.27700
C3302       C  0.84500303  0.55064920  0.83016087     0.18400
C3303       C  0.86208513  0.48885918  0.85342057     0.12300
C3304       C  0.88421176  0.52043274  0.89088710    -0.12000
H3305       H  0.87437055  0.56765827  0.88187570     0.12600
C3306       C  0.83020323  0.55959235  0.80903298    -0.22900
H3307       H  0.84105908  0.51377237  0.81826322     0.08200
C3308       C  0.84219718  0.47530595  0.86183262     0.04600
C3309       C  0.84315294  0.44999083  0.86097188    -0.20100
C3310       C  0.86345948  0.43788054  0.85169070    -0.12400
C3311       C  0.88392954  0.45153380  0.84447675     0.13300
C3312       C  0.88283524  0.47690263  0.84519947    -0.22800
C3313       C  0.81980523  0.48758722  0.87133130    -0.05900
H3314       H  0.82753118  0.43961544  0.86667668     0.14800
C3315       C  0.90737352  0.44017096  0.83655418    -0.16100
H3316       H  0.89820829  0.48745678  0.83911275     0.09100
H3317       H  0.81244717  0.55020461  0.80888607     0.07000
H3318       H  0.83980201  0.55545156  0.79187771     0.08200
H3319       H  0.82637101  0.57920015  0.80959616     0.07200
H3320       H  0.90032558  0.51047812  0.88423325     0.02100
H3321       H  0.87244168  0.50782528  0.90116417     0.02600
H3322       H  0.89048513  0.53483357  0.90343382     0.06100
H3323       H  0.80605172  0.47429405  0.87746810     0.05100
H3324       H  0.81154698  0.49884977  0.85691447    -0.00700
H3325       H  0.82460553  0.49928884  0.88694575     0.00800
H3326       H  0.91110489  0.44499906  0.81742288     0.04500
H3327       H  0.90744461  0.42025585  0.83828762     0.06400
H3328       H  0.92230764  0.44717861  0.84802129     0.07300
C3329       C  0.97125448  0.62391911  0.86542846    -0.22300
C3330       C  0.98550475  0.64359117  0.85808184     0.09600
C3331       C  0.97423324  0.66488525  0.84974423     0.10000
C3332       C  0.94896706  0.66598244  0.84865932    -0.17300
C3333       C  0.93456890  0.64619429  0.85542373    -0.27700
C3334       C  0.94584150  0.62499704  0.86446178     0.18400
C3335       C  0.01224400  0.64151432  0.85810272     0.12300
C3336       C  0.98891713  0.68632351  0.84149958    -0.12000
H3337       H  0.94039600  0.68221136  0.84176090     0.12600
C3338       C  0.93185227  0.60357725  0.87395219    -0.22900
H3339       H  0.98002062  0.60766193  0.87201612     0.08200
C3340       C  0.02633257  0.64948140  0.87785305     0.04600
C3341       C  0.05166674  0.65032802  0.87558938    -0.20100
C3342       C  0.06319004  0.64303086  0.85412401    -0.12400
C3343       C  0.04896096  0.63450350  0.83456123     0.13300
C3344       C  0.02368776  0.63380169  0.83686719    -0.22800
C3345       C  0.01455226  0.65737615  0.90111934    -0.05900
H3346       H  0.06252551  0.65685487  0.89055849     0.14800
C3347       C  0.06015723  0.62745292  0.81070509    -0.16100
H3348       H  0.01266662  0.62801594  0.82169176     0.09100
H3349       H  0.93756544  0.59973887  0.89282981     0.07000
H3350       H  0.93569097  0.58744775  0.86260907     0.08200
H3351       H  0.91206997  0.60652042  0.87436174     0.07200
H3352       H  0.00062740  0.68100648  0.82607706     0.02100
H3353       H  0.00041892  0.69293676  0.85657024     0.02600
H3354       H  0.97723758  0.70151046  0.83548067     0.06100
H3355       H  0.02813674  0.66303035  0.91480227     0.05100
H3356       H  0.00389628  0.64216470  0.90876189    -0.00700
H3357       H  0.00230482  0.67289944  0.89769718     0.00800
H3358       H  0.04623845  0.62253079  0.79706806     0.04500
H3359       H  0.07210722  0.61153243  0.81316025     0.06400
H3360       H  0.07080411  0.64282983  0.80337705     0.07300
C3361       C  0.87790163  0.63622991  0.97015849    -0.22300
C3362       C  0.85683881  0.63893713  0.98394988     0.09600
C3363       C  0.83428290  0.64126041  0.97237044     0.10000
C3364       C  0.83342601  0.64246276  0.94713326    -0.17300
C3365       C  0.85462286  0.64155843  0.93315390    -0.27700
C3366       C  0.87710971  0.63735303  0.94477281     0.18400
C3367       C  0.85879118  0.64195465  0.01038442     0.12300
C3368       C  0.81115777  0.64301160  0.98670532    -0.12000
H3369       H  0.81610842  0.64518906  0.93836295     0.12600
C3370       C  0.90017710  0.63367185  0.93070121    -0.22900
H3371       H  0.89508721  0.63403380  0.97934850     0.08200
C3372       C  0.85980369  0.62208179  0.02622383     0.04600
C3373       C  0.85951699  0.62623387  0.05125195    -0.20100
C3374       C  0.85772944  0.64981439  0.06076214    -0.12400
C3375       C  0.85683473  0.66976176  0.04461614     0.13300
C3376       C  0.85773107  0.66548331  0.01965330    -0.22800
C3377       C  0.86043198  0.59655840  0.01671579    -0.05900
H3378       H  0.86020941  0.61091378  0.06343040     0.27600
C3379       C  0.85367979  0.69549740  0.05318846    -0.16100
H3380       H  0.85669523  0.68054871  0.00714164     0.09100
H3381       H  0.89772392  0.61873509  0.91748860     0.07000
H3382       H  0.91550170  0.62878882  0.94273888     0.08200
H3383       H  0.90527726  0.65050293  0.92105891     0.07200
H3384       H  0.81151010  0.65932960  0.99840273     0.02100
H3385       H  0.80908361  0.62668096  0.99820328     0.02600
H3386       H  0.79506524  0.64430533  0.97475218     0.06100
H3387       H  0.86092674  0.58308391  0.03161173     0.05100
H3388       H  0.87676161  0.59395583  0.00533765    -0.00700
H3389       H  0.84405523  0.59303079  0.00563725     0.00800
H3390       H  0.86959567  0.70117336  0.06401741     0.04500
H3391       H  0.83696812  0.69703836  0.06422781     0.06400
H3392       H  0.85200818  0.70835540  0.03783874     0.07300
C3393       C  0.77580157  0.65462414  0.75686641    -0.22300
C3394       C  0.75884615  0.63581802  0.75718910     0.09600
C3395       C  0.76101934  0.61703935  0.77428765     0.10000
C3396       C  0.78030741  0.61743039  0.79068352    -0.17300
C3397       C  0.79749919  0.63616283  0.79040668    -0.27700
C3398       C  0.79503951  0.65522375  0.77338856     0.18400
C3399       C  0.73928205  0.63582177  0.73900848     0.12300
C3400       C  0.74279240  0.59679551  0.77550450    -0.12000
H3401       H  0.78198940  0.60293141  0.80376187     0.12600
C3402       C  0.81195931  0.67665469  0.77292613    -0.22900
H3403       H  0.77389658  0.66892957  0.74358186     0.08200
C3404       C  0.71964914  0.65198975  0.74046397     0.04600
C3405       C  0.70167309  0.65119926  0.72259737    -0.20100
C3406       C  0.70283025  0.63458916  0.70329202    -0.12400
C3407       C  0.72257617  0.61819084  0.70213688     0.13300
C3408       C  0.74056375  0.61921990  0.71995671    -0.22800
C3409       C  0.71750739  0.66982601  0.76100280    -0.05900
H3410       H  0.68674467  0.66385950  0.72363348     0.14800
C3411       C  0.72481095  0.59916437  0.68268246    -0.16100
H3412       H  0.75582663  0.60693467  0.71910004     0.09100
H3413       H  0.81219398  0.68559366  0.79093294     0.07000
H3414       H  0.80628938  0.69036626  0.75938122     0.08200
H3415       H  0.83048881  0.67074018  0.76801374     0.07200
H3416       H  0.74290088  0.58636012  0.75835313     0.02100
H3417       H  0.72445815  0.60438627  0.77854087     0.02600
H3418       H  0.74681963  0.58402915  0.79048248     0.06100
H3419       H  0.70067617  0.68070703  0.75969988     0.05100
H3420       H  0.73305366  0.68251256  0.76076251    -0.00700
H3421       H  0.71725739  0.66000425  0.77852167     0.00800
H3422       H  0.72739654  0.60784197  0.66476962     0.04500
H3423       H  0.70836201  0.58764212  0.68248436     0.06400
H3424       H  0.74058852  0.58712316  0.68574994     0.07300
C3425       C  0.52339140  0.86951455  0.83887839    -0.22300
C3426       C  0.51271458  0.86120994  0.86027095     0.09600
C3427       C  0.52735106  0.85230014  0.87913839     0.10000
C3428       C  0.55253402  0.85177254  0.87606105    -0.17300
C3429       C  0.56326740  0.85951607  0.85436421    -0.27700
C3430       C  0.54842614  0.86825176  0.83536657     0.18400
C3431       C  0.48611733  0.85893736  0.86080507     0.12300
C3432       C  0.51633493  0.84300625  0.90224744    -0.12000
H3433       H  0.56389903  0.84487608  0.89048857     0.12600
C3434       C  0.55781458  0.87465194  0.81053015    -0.22900
H3435       H  0.51191561  0.87570257  0.82421961     0.08200
C3436       C  0.47093977  0.87877830  0.86576995     0.04600
C3437       C  0.44581663  0.87605255  0.86328683    -0.20100
C3438       C  0.43563862  0.85409718  0.85538221    -0.12400
C3439       C  0.45112881  0.83436417  0.84991118     0.13300
C3440       C  0.47606914  0.83693845  0.85337139    -0.22800
C3441       C  0.48129920  0.90277423  0.87345577    -0.05900
H3442       H  0.43407029  0.89118063  0.86739674     0.14800
C3443       C  0.44262501  0.81090526  0.83877750    -0.16100
H3444       H  0.48798980  0.82199257  0.84894277     0.09100
H3445       H  0.55447047  0.89411422  0.80690705     0.07000
H3446       H  0.54808441  0.86374771  0.79672369     0.08200
H3447       H  0.57727962  0.87093244  0.80799554     0.07200
H3448       H  0.50424801  0.82747039  0.89826325     0.02100
H3449       H  0.50568028  0.85759978  0.91100655     0.02600
H3450       H  0.53037009  0.83682785  0.91522529     0.06100
H3451       H  0.46689828  0.91638184  0.87675765     0.05100
H3452       H  0.49340568  0.90986781  0.85909305    -0.00700
H3453       H  0.49180520  0.90049538  0.89041999     0.00800
H3454       H  0.45308295  0.80732062  0.82199183     0.04500
H3455       H  0.42340553  0.81092386  0.83339899     0.06400
H3456       H  0.44578018  0.79582675  0.85165225     0.07300
C3457       C  0.66880750  0.97673913  0.86159625    -0.22300
C3458       C  0.64714018  0.98903380  0.85713253     0.09600
C3459       C  0.62578708  0.97575583  0.85275940     0.10000
C3460       C  0.62679520  0.95036747  0.85219932    -0.17300
C3461       C  0.64861409  0.93802012  0.85616745    -0.27700
C3462       C  0.66991205  0.95141828  0.86115725     0.18400
C3463       C  0.64782979  0.01576914  0.85534702     0.12300
C3464       C  0.60199332  0.98837745  0.84877702    -0.12000
H3465       H  0.61052774  0.94008082  0.84843982     0.12600
C3466       C  0.69440608  0.94000167  0.86488333    -0.22900
H3467       H  0.68521167  0.98705250  0.86467123     0.08200
C3468       C  0.65093281  0.03060689  0.87591107     0.04600
C3469       C  0.65338573  0.05572295  0.87289624    -0.20100
C3470       C  0.65250425  0.06624518  0.84981921    -0.12400
C3471       C  0.64922756  0.05134365  0.82922631     0.13300
C3472       C  0.64691791  0.02629792  0.83231321    -0.22800
C3473       C  0.65129457  0.01996466  0.90098370    -0.05900
H3474       H  0.65580390  0.06723574  0.88860363     0.14800
C3475       C  0.64903001  0.06095588  0.80367468    -0.16100
H3476       H  0.64492007  0.01478103  0.81653811     0.09100
H3477       H  0.70111944  0.94447635  0.88328529     0.07000
H3478       H  0.70731349  0.94737466  0.85137886     0.08200
H3479       H  0.69447589  0.92011996  0.86285191     0.07200
H3480       H  0.60295500  0.99987027  0.83235533     0.02100
H3481       H  0.59773167  0.99989267  0.86468566     0.02600
H3482       H  0.58696437  0.97527610  0.84630030     0.06100
H3483       H  0.65318617  0.03417675  0.91507404     0.05100
H3484       H  0.66672998  0.00729419  0.90285644    -0.00700
H3485       H  0.63415703  0.01004814  0.90433786     0.00800
H3486       H  0.66354076  0.05200938  0.79305402     0.04500
H3487       H  0.65214266  0.08068839  0.80252446     0.06400
H3488       H  0.63132844  0.05686990  0.79511890     0.07300
C3489       C  0.66378393  0.84590207  0.97389225    -0.22300
C3490       C  0.64388317  0.85719456  0.98471003     0.09600
C3491       C  0.62558836  0.86730318  0.97009990     0.10000
C3492       C  0.62736605  0.86539988  0.94481156    -0.17300
C3493       C  0.64734796  0.85416471  0.93389614    -0.27700
C3494       C  0.66585070  0.84433683  0.94865020     0.18400
C3495       C  0.64254545  0.85778042  0.01144733     0.12300
C3496       C  0.60422538  0.87997265  0.98124421    -0.12000
H3497       H  0.61326000  0.87296862  0.93348915     0.12600
C3498       C  0.68735558  0.83137785  0.93800315    -0.22900
H3499       H  0.67769624  0.83815880  0.98533449     0.08200
C3500       C  0.63428787  0.83761788  0.02469368     0.04600
C3501       C  0.63465472  0.83841639  0.05005368    -0.20100
C3502       C  0.64340028  0.85879532  0.06247067    -0.12400
C3503       C  0.65094285  0.87933473  0.04910749     0.13300
C3504       C  0.65055785  0.87845598  0.02372471    -0.22800
C3505       C  0.62545105  0.81514127  0.01204653    -0.05900
H3506       H  0.62898129  0.82265601  0.06024226     0.14800
C3507       C  0.65893708  0.90262683  0.06083070    -0.16100
H3508       H  0.65666868  0.89397400  0.01340638     0.09100
H3509       H  0.69922633  0.82367198  0.95225996     0.07000
H3510       H  0.69843879  0.84411346  0.92716447     0.08200
H3511       H  0.68108592  0.81627145  0.92635850     0.07200
H3512       H  0.61053957  0.89564878  0.99211146     0.02100
H3513       H  0.59425660  0.86726396  0.99317022     0.02600
H3514       H  0.59151318  0.88677924  0.96725952     0.06100
H3515       H  0.61946015  0.80111095  0.02511755     0.05100
H3516       H  0.64019510  0.80733696  0.00087826    -0.00700
H3517       H  0.60990815  0.81970738  0.00018828     0.00800
H3518       H  0.67812847  0.90626811  0.05620308     0.04500
H3519       H  0.65704116  0.90247418  0.08074094     0.06400
H3520       H  0.64764926  0.91775783  0.05398050     0.07300
C3521       C  0.60802821  0.78090336  0.75726526    -0.22300
C3522       C  0.62441102  0.76158481  0.75769355     0.09600
C3523       C  0.64066819  0.75936227  0.77721212     0.10000
C3524       C  0.64068787  0.77695628  0.79550122    -0.17300
C3525       C  0.62489121  0.79692663  0.79486234    -0.27700
C3526       C  0.60793009  0.79859081  0.77559976     0.18400
C3527       C  0.62498309  0.74431389  0.73712652     0.12300
C3528       C  0.65798878  0.73836182  0.77876576    -0.12000
H3529       H  0.65360866  0.77530456  0.81016799     0.12600
C3530       C  0.58942766  0.81857221  0.77426202    -0.22900
H3531       H  0.59546758  0.78230717  0.74225243     0.08200
C3532       C  0.60758041  0.72585072  0.73452505     0.04600
C3533       C  0.60972737  0.70929280  0.71535606    -0.20100
C3534       C  0.62890769  0.71072279  0.69868335    -0.12400
C3535       C  0.64636828  0.72936579  0.70138661     0.13300
C3536       C  0.64399048  0.74598979  0.72045889    -0.22800
C3537       C  0.58708545  0.72329411  0.75228086    -0.05900
H3538       H  0.59636904  0.69506652  0.71345831     0.14800
C3539       C  0.66814567  0.73136928  0.68504245    -0.16100
H3540       H  0.65733127  0.76018999  0.72272905     0.09100
H3541       H  0.57852844  0.81893025  0.79113661     0.07000
H3542       H  0.57678389  0.81599238  0.75885308     0.08200
H3543       H  0.59852170  0.83626402  0.77162048     0.07200
H3544       H  0.67057100  0.73863568  0.76313403     0.02100
H3545       H  0.64772743  0.72109345  0.77868631     0.02600
H3546       H  0.66900439  0.73901051  0.79556306     0.06100
H3547       H  0.57535140  0.70758165  0.74788801     0.05100
H3548       H  0.57571217  0.73982450  0.75198482    -0.00700
H3549       H  0.59443140  0.72065222  0.77079034     0.00800
H3550       H  0.66237405  0.73552460  0.66627053     0.04500
H3551       H  0.67851646  0.71416680  0.68532658     0.06400
H3552       H  0.68054424  0.74606958  0.69087957     0.07300
C3553       C  0.73923248  0.77614692  0.84826522    -0.22300
C3554       C  0.73813344  0.75960774  0.86743085     0.09600
C3555       C  0.72011373  0.76209731  0.88527210     0.10000
C3556       C  0.70362350  0.78126794  0.88365242    -0.17300
C3557       C  0.70472594  0.79810254  0.86461930    -0.27700
C3558       C  0.72267902  0.79531330  0.84647424     0.18400
C3559       C  0.75597878  0.73967659  0.86832054     0.12300
C3560       C  0.71801730  0.74427161  0.90577437    -0.12000
H3561       H  0.68980298  0.78310352  0.89740973     0.12600
C3562       C  0.72408882  0.81177081  0.82472850    -0.22900
H3563       H  0.75307770  0.77390294  0.83456081     0.08200
C3564       C  0.75403969  0.71941815  0.85298312     0.04600
C3565       C  0.77179105  0.70134084  0.85398574    -0.20100
C3566       C  0.79160012  0.70297603  0.86995590    -0.12400
C3567       C  0.79300894  0.72314071  0.88589324     0.13300
C3568       C  0.77520351  0.74122420  0.88471650    -0.22800
C3569       C  0.73316466  0.71682469  0.83563024    -0.05900
H3570       H  0.77035948  0.68605754  0.84178954     0.14800
C3571       C  0.81283160  0.72582531  0.90444154    -0.16100
H3572       H  0.77632668  0.75683602  0.89655276     0.09100
H3573       H  0.70649350  0.81182495  0.81503283     0.07000
H3574       H  0.73818480  0.80578603  0.81172347     0.08200
H3575       H  0.72877820  0.83043313  0.83045506     0.07200
H3576       H  0.73476744  0.74454092  0.91682257     0.02100
H3577       H  0.71521781  0.72579372  0.89839660     0.02600
H3578       H  0.70257398  0.74859166  0.91787187     0.06100
H3579       H  0.73408608  0.69958911  0.82532899     0.05100
H3580       H  0.73331823  0.73192496  0.82241069    -0.00700
H3581       H  0.71585338  0.71710948  0.84580174     0.00800
H3582       H  0.81001126  0.74191418  0.91616175     0.04500
H3583       H  0.83054054  0.72817685  0.89531420     0.06400
H3584       H  0.81327267  0.70964831  0.91633885     0.07300
C3585       C  0.83952720  0.84328560  0.52331309    -0.22300
C3586       C  0.85836907  0.85605812  0.51229456     0.09600
C3587       C  0.87603348  0.86748199  0.52675709     0.10000
C3588       C  0.87420790  0.86609951  0.55211292    -0.17300
C3589       C  0.85502862  0.85366198  0.56319812    -0.27700
C3590       C  0.83771791  0.84165510  0.54852777     0.18400
C3591       C  0.85906399  0.85678361  0.48550844     0.12300
C3592       C  0.89672496  0.88104035  0.51540887    -0.12000
H3593       H  0.88755716  0.87508193  0.56333429     0.12600
C3594       C  0.81759491  0.82616814  0.55853001    -0.22900
H3595       H  0.82624737  0.83420828  0.51206477     0.08200
C3596       C  0.86832006  0.83721934  0.47202175     0.04600
C3597       C  0.86651756  0.83758477  0.44671720    -0.20100
C3598       C  0.85528243  0.85686727  0.43454709    -0.12400
C3599       C  0.84633847  0.87667550  0.44808838     0.13300
C3600       C  0.84842978  0.87639799  0.47345887    -0.22800
C3601       C  0.87988339  0.81585511  0.48436211    -0.05900
H3602       H  0.87339204  0.82240149  0.43638955     0.14800
C3603       C  0.83510156  0.89831475  0.43594026    -0.16100
H3604       H  0.84132418  0.89131656  0.48402482     0.09100
H3605       H  0.81903581  0.80762654  0.55091072     0.07000
H3606       H  0.79986521  0.83394654  0.55323535     0.08200
H3607       H  0.81799909  0.82432539  0.57840925     0.07200
H3608       H  0.88963479  0.89605442  0.50412689     0.02100
H3609       H  0.90743606  0.86859682  0.50384310     0.02600
H3610       H  0.90897753  0.88886601  0.52928800     0.06100
H3611       H  0.88633000  0.80218771  0.47111145     0.05100
H3612       H  0.86660459  0.80694369  0.49649674    -0.00700
H3613       H  0.89562834  0.82201554  0.49519810     0.00800
H3614       H  0.81830823  0.89290104  0.42638886     0.04500
H3615       H  0.84805881  0.90621956  0.42278884     0.06400
H3616       H  0.83024821  0.91259722  0.44922673     0.07300
C3617       C  0.97464596  0.86728167  0.66777968    -0.22300
C3618       C  0.98633073  0.86335868  0.64560540     0.09600
C3619       C  0.97234427  0.85965036  0.62452507     0.10000
C3620       C  0.94702650  0.85904370  0.62631522    -0.17300
C3621       C  0.93535936  0.86245223  0.64858302    -0.27700
C3622       C  0.94934766  0.86701122  0.66959110     0.18400
C3623       C  0.01313526  0.86147172  0.64529565     0.12300
C3624       C  0.98406847  0.85654026  0.60011512    -0.12000
H3625       H  0.93624034  0.85570071  0.61027164     0.12600
C3626       C  0.93851870  0.87047690  0.69442171    -0.22900
H3627       H  0.98540071  0.86982192  0.68400203     0.08200
C3628       C  0.02824463  0.88151739  0.65009061     0.04600
C3629       C  0.05343734  0.87821667  0.65100060    -0.20100
C3630       C  0.06389067  0.85550497  0.64656902    -0.12400
C3631       C  0.04870557  0.83550528  0.64132014     0.13300
C3632       C  0.02357086  0.83877292  0.64099829    -0.22800
C3633       C  0.01787438  0.90646298  0.65361171    -0.05900
H3634       H  0.06509230  0.89351771  0.65485235     0.14800
C3635       C  0.05804593  0.81025926  0.63679951    -0.16100
H3636       H  0.01193007  0.82332479  0.63769000     0.09100
H3637       H  0.94355465  0.88862272  0.70143739     0.07000
H3638       H  0.94577359  0.85650749  0.70689033     0.08200
H3639       H  0.91859517  0.86897172  0.69481961     0.07200
H3640       H  0.99524697  0.83990035  0.59982699     0.02100
H3641       H  0.99568621  0.87243509  0.59615232     0.02600
H3642       H  0.97042291  0.85497066  0.58544977     0.06100
H3643       H  0.03229473  0.92022126  0.65615181     0.05100
H3644       H  0.00609704  0.90686541  0.66984156    -0.00700
H3645       H  0.00711257  0.91160995  0.63745154     0.00800
H3646       H  0.04972057  0.79759868  0.64998187     0.04500
H3647       H  0.07786044  0.80853374  0.63873773     0.06400
H3648       H  0.05298149  0.80448561  0.61822184     0.07300
C3649       C  0.84151379  0.97984719  0.65918860    -0.22300
C3650       C  0.85285351  0.99020023  0.63911333     0.09600
C3651       C  0.86249408  0.97532209  0.62079238     0.10000
C3652       C  0.86072534  0.95010917  0.62311894    -0.17300
C3653       C  0.84963326  0.93963891  0.64342444    -0.27700
C3654       C  0.83933023  0.95475379  0.66143522     0.18400
C3655       C  0.85458278  0.01677232  0.63805747     0.12300
C3656       C  0.87484076  0.98607496  0.59902654    -0.12000
H3657       H  0.86842671  0.93852367  0.60929910     0.12600
C3658       C  0.82500272  0.94542912  0.68273211    -0.22900
H3659       H  0.83391503  0.99151012  0.67302205     0.08200
C3660       C  0.83610610  0.03090918  0.62774243     0.04600
C3661       C  0.83797138  0.05618786  0.62857380    -0.20100
C3662       C  0.85763574  0.06765285  0.63997279    -0.12400
C3663       C  0.87628243  0.05319610  0.65009342     0.13300
C3664       C  0.87442466  0.02795966  0.64898491    -0.22800
C3665       C  0.81421767  0.01928792  0.61640066    -0.05900
H3666       H  0.82353385  0.06707093  0.62098177     0.14800
C3667       C  0.89867305  0.06332276  0.66171986    -0.16100
H3668       H  0.88851839  0.01685146  0.65690442     0.09100
H3669       H  0.80696162  0.95424301  0.68299073     0.07000
H3670       H  0.83460069  0.94990628  0.69980234     0.08200
H3671       H  0.82166009  0.92575460  0.68220379     0.07200
H3672       H  0.89057748  0.99707130  0.60492018     0.02100
H3673       H  0.86202118  0.99780976  0.58899980     0.02600
H3674       H  0.88144122  0.97186487  0.58644324     0.06100
H3675       H  0.80136693  0.03298855  0.60930128     0.05100
H3676       H  0.80458290  0.00817801  0.63007615    -0.00700
H3677       H  0.81984022  0.00750907  0.60114427     0.00800
H3678       H  0.89947538  0.05765644  0.68097138     0.04500
H3679       H  0.89949107  0.08316607  0.66100496     0.06400
H3680       H  0.91489035  0.05627469  0.65219016     0.07300
C3681       C  0.75842340  0.78026828  0.64692103    -0.22300
C3682       C  0.76145800  0.76134304  0.63041820     0.09600
C3683       C  0.78163215  0.76110714  0.61488683     0.10000
C3684       C  0.79816635  0.78028617  0.61578649    -0.17300
C3685       C  0.79503075  0.79969443  0.63193503    -0.27700
C3686       C  0.77499664  0.79941725  0.64810806     0.18400
C3687       C  0.74309814  0.74199400  0.62962299     0.12300
C3688       C  0.78577053  0.74048173  0.59755699    -0.12000
H3689       H  0.81354010  0.78016965  0.60361084     0.12600
C3690       C  0.77107984  0.81866293  0.66713291    -0.22900
H3691       H  0.74292398  0.77998785  0.65894601     0.08200
C3692       C  0.74300979  0.72312577  0.64669276     0.04600
C3693       C  0.72498160  0.70537624  0.64537778    -0.20100
C3694       C  0.70696220  0.70606104  0.62737136    -0.12400
C3695       C  0.70741319  0.72493303  0.60999758     0.13300
C3696       C  0.72546452  0.74271997  0.61147312    -0.22800
C3697       C  0.76202853  0.72166166  0.66617458    -0.05900
H3698       H  0.72481182  0.69105823  0.65874993     0.14800
C3699       C  0.68956315  0.72620877  0.58943671    -0.16100
H3700       H  0.72591099  0.75730485  0.59838719     0.09100
H3701       H  0.75544394  0.81441170  0.67901402     0.07000
H3702       H  0.76725085  0.83634536  0.65845429     0.08200
H3703       H  0.78732103  0.82012974  0.67885537     0.07200
H3704       H  0.77046588  0.73922329  0.58462921     0.02100
H3705       H  0.78721495  0.72325784  0.60778216     0.02600
H3706       H  0.80266632  0.74291884  0.58697480     0.06100
H3707       H  0.75956543  0.70546485  0.67780036     0.05100
H3708       H  0.76108125  0.73793657  0.67790807    -0.00700
H3709       H  0.78024105  0.72063044  0.65778333     0.00800
H3710       H  0.69372822  0.74129466  0.57684023     0.04500
H3711       H  0.67106522  0.72930057  0.59654585     0.06400
H3712       H  0.69013175  0.70910778  0.57890295     0.07300
C3713       C  0.85567739  0.76171186  0.72334043    -0.22300
C3714       C  0.87096389  0.76594500  0.74303860     0.09600
C3715       C  0.88584727  0.78661598  0.74330438     0.10000
C3716       C  0.88491637  0.80286146  0.72379504    -0.17300
C3717       C  0.86958267  0.79879432  0.70384256    -0.27700
C3718       C  0.85467313  0.77779290  0.70373169     0.18400
C3719       C  0.87129739  0.74799134  0.76288496     0.12300
C3720       C  0.90274553  0.79143408  0.76413198    -0.12000
H3721       H  0.89636505  0.81876705  0.72412185     0.12600
C3722       C  0.83715517  0.77221541  0.68351937    -0.22900
H3723       H  0.84439667  0.74567575  0.72340928     0.08200
C3724       C  0.85509835  0.74943243  0.78249070     0.04600
C3725       C  0.85509460  0.73105369  0.80002514    -0.20100
C3726       C  0.87073313  0.71100414  0.79827251    -0.12400
C3727       C  0.88708535  0.70978987  0.77841103     0.13300
C3728       C  0.88713338  0.72838078  0.76111755    -0.22800
C3729       C  0.83759461  0.77020151  0.78466569    -0.05900
H3730       H  0.84239599  0.73216034  0.81490714     0.14800
C3731       C  0.90466915  0.68920144  0.77503739    -0.16100
H3732       H  0.89935299  0.72746808  0.74580013     0.09100
H3733       H  0.82639126  0.75565896  0.68723223     0.07000
H3734       H  0.84712994  0.76904199  0.66638494     0.08200
H3735       H  0.82423955  0.78742202  0.68128242     0.07200
H3736       H  0.91580146  0.77628659  0.76588008     0.02100
H3737       H  0.89229196  0.79309902  0.78119035     0.02600
H3738       H  0.91315331  0.80841704  0.76151030     0.06100
H3739       H  0.82605838  0.76854271  0.80102928     0.05100
H3740       H  0.82559443  0.77067672  0.76856667    -0.00700
H3741       H  0.84766434  0.78752869  0.78586591     0.00800
H3742       H  0.91663823  0.69207417  0.75915770     0.04500
H3743       H  0.89468963  0.67206823  0.77185388     0.06400
H3744       H  0.91641182  0.68751064  0.79124887     0.07300
C3745       C  0.77439048  0.86121351  0.74086657    -0.22300
C3746       C  0.75488726  0.87640515  0.73568464     0.09600
C3747       C  0.75500869  0.89048423  0.71448593     0.10000
C3748       C  0.77489469  0.88904661  0.69882283    -0.17300
C3749       C  0.79465114  0.87374221  0.70380873    -0.27700
C3750       C  0.79422802  0.85946035  0.72521172     0.18400
C3751       C  0.73450683  0.87689278  0.75288844     0.12300
C3752       C  0.73407440  0.90678818  0.70836987    -0.12000
H3753       H  0.77491486  0.89997825  0.68252778     0.12600
C3754       C  0.81406900  0.84185079  0.73165928    -0.22900
H3755       H  0.77388800  0.85043237  0.75725864     0.08200
C3756       C  0.71633547  0.85906329  0.75225651     0.04600
C3757       C  0.69873144  0.85869738  0.77048513    -0.20100
C3758       C  0.69912822  0.87551402  0.78960095    -0.12400
C3759       C  0.71718215  0.89380076  0.78978181     0.13300
C3760       C  0.73457816  0.89424683  0.77130808    -0.22800
C3761       C  0.71582037  0.84021490  0.73254661    -0.05900
H3762       H  0.68501460  0.84468096  0.77017859     0.14800
C3763       C  0.71829562  0.91304966  0.80909063    -0.16100
H3764       H  0.74872681  0.90781534  0.77152514     0.09100
H3765       H  0.81634092  0.82836249  0.71693271     0.07000
H3766       H  0.80994325  0.83170755  0.74850969     0.08200
H3767       H  0.83128493  0.85169383  0.73475684     0.07200
H3768       H  0.73169564  0.92050418  0.72285252     0.02100
H3769       H  0.71726802  0.89592357  0.70674044     0.02600
H3770       H  0.73698185  0.91644892  0.69098986     0.06100
H3771       H  0.70029067  0.82764770  0.73464815     0.05100
H3772       H  0.73269780  0.82936449  0.73302769    -0.00700
H3773       H  0.71426224  0.84915552  0.71463266     0.00800
H3774       H  0.72261403  0.90476479  0.82685099     0.04500
H3775       H  0.70073038  0.92272116  0.81009439     0.06400
H3776       H  0.73256575  0.92666635  0.80527847     0.07300
loop_ 
_geom_bond_atom_site_label_1 
_geom_bond_atom_site_label_2 
_geom_bond_distance 
_geom_bond_site_symmetry_2 
_ccdc_geom_bond_type 
O1          Cr19   1.970       .  S
O1            C9   1.260       .  A
O2          Cr19   2.006       .  S
O2            C3   1.267       .  A
C3            O4   1.261       .  A
C3         C3653   1.471       .  S
O4          Cr20   1.971       .  S
O5          Cr20   2.007       .  S
O5            C6   1.265       .  A
C6            O7   1.260       .  A
C6         C3589   1.477       .  S
O7          Cr21   1.981       .  S
O8          Cr21   2.013       .  S
O8            C9   1.269       .  A
C9         C3621   1.474       .  S
O10         Cr19   2.010       .  S
O10          C18   1.265       .  A
O11         Cr19   1.968       .  S
O11          C12   1.256       .  A
C12          O13   1.265       .  A
C12        C3749   1.487       .  S
O13         Cr20   2.005       .  S
O14         Cr20   1.958       .  S
O14          C15   1.255       .  A
C15          O16   1.268       .  A
C15        C3685   1.483       .  S
O16         Cr21   2.011       .  S
O17         Cr21   1.968       .  S
O17          C18   1.255       .  A
C18        C3717   1.490       .  S
Cr19         O22   1.769       .  S
Cr20         O22   1.769       .  S
Cr21         O22   1.767       .  S
O23         Cr41   1.981       .  S
O23          C31   1.261       .  A
O24         Cr41   2.006       .  S
O24          C25   1.266       .  A
C25          O26   1.259       .  A
C25        C3429   1.473       .  S
O26         Cr42   1.971       .  S
O27         Cr42   2.016       .  S
O27          C28   1.269       .  A
C28          O29   1.260       .  A
C28        C3461   1.475       .  S
O29         Cr43   1.972       .  S
O30         Cr43   2.007       .  S
O30          C31   1.265       .  A
C31        C3493   1.478       .  S
O32         Cr41   2.010       .  S
O32          C40   1.267       .  A
O33         Cr41   1.974       .  S
O33          C34   1.261       .  A
C34          O35   1.267       .  A
C34        C3525   1.493       .  S
O35         Cr42   2.016       .  S
O36         Cr42   1.975       .  S
O36          C37   1.259       .  A
C37          O38   1.263       .  A
C37        C3758   1.484       .  S
O38         Cr43   2.005       .  S
O39         Cr43   1.970       .  S
O39          C40   1.258       .  A
C40        C3557   1.483       .  S
Cr41         O44   1.768       .  S
Cr42         O44   1.767       .  S
Cr43         O44   1.767       .  S
O45         Cr63   1.974       .  S
O45          C53   1.259       .  A
O46         Cr63   2.008       .  S
O46          C47   1.268       .  A
C47          O48   1.262       .  A
C47        C3333   1.479       .  S
O48         Cr64   1.979       .  S
O49         Cr64   2.005       .  S
O49          C50   1.264       .  A
C50          O51   1.260       .  A
C50        C3301   1.475       .  S
O51         Cr65   1.979       .  S
O52         Cr65   2.000       .  S
O52          C53   1.266       .  A
C53        C3365   1.480       .  S
O54         Cr63   2.009       .  S
O54          C62   1.264       .  A
O55         Cr63   1.984       .  S
O55          C56   1.261       .  A
C56          O57   1.263       .  A
C56        C3726   1.492       .  S
O57         Cr64   2.003       .  S
O58         Cr64   1.971       .  S
O58          C59   1.259       .  A
C59          O60   1.266       .  A
C59        C3397   1.480       .  S
O60         Cr65   2.002       .  S
O61         Cr65   1.976       .  S
O61          C62   1.260       .  A
C62        C3566   1.492       .  S
Cr63         O66   1.765       .  S
Cr64         O66   1.765       .  S
Cr65         O66   1.766       .  S
O67         Cr85   1.974       .  S
O67          C75   1.261       .  A
O68         Cr85   2.014       .  S
O68          C69   1.268       .  A
C69          O70   1.260       .  A
C69        C3237   1.474       .  S
O70         Cr86   1.970       .  S
O71         Cr86   2.006       .  S
O71          C72   1.265       .  A
C72          O73   1.260       .  A
C72        C3269   1.469       .  S
O73         Cr87   1.973       .  S
O74         Cr87   2.015       .  S
O74          C75   1.268       .  A
C75        C3205   1.478       .  S
O76         Cr85   2.010       .  S
O76          C84   1.265       .  A
O77         Cr85   1.975       .  S
O77          C78   1.259       .  A
C78          O79   1.263       .  A
C78        C3406   1.485       .  S
O79         Cr86   2.001       .  S
O80         Cr86   1.966       .  S
O80          C81   1.257       .  A
C81          O82   1.265       .  A
C81        C3694   1.484       .  S
O82         Cr87   2.011       .  S
O83         Cr87   1.974       .  S
O83          C84   1.258       .  A
C84        C3534   1.486       .  S
Cr85         O88   1.769       .  S
Cr86         O88   1.769       .  S
Cr87         O88   1.769       .  S
O89        Cr107   2.013       .  S
O89          C97   1.269       .  A
O90        Cr107   1.971       .  S
O90          C91   1.261       .  A
C91          O92   1.269       .  A
C91        C3045   1.483       .  S
O92        Cr108   2.016       .  S
O93        Cr108   1.971       .  S
O93          C94   1.259       .  A
C94          O95   1.266       .  A
C94        C3662   1.482       .  S
O95        Cr109   2.013       .  S
O96        Cr109   1.975       .  S
O96          C97   1.261       .  A
C97        C3086   1.494       .  S
O98        Cr107   1.976       .  S
O98         C106   1.261       .  A
O99        Cr107   2.015       .  S
O99         C100   1.266       .  A
C100        O101   1.258       .  A
C100       C3109   1.489       .  S
O101       Cr108   1.975       .  S
O102       Cr108   2.016       .  S
O102        C103   1.268       .  A
C103        O104   1.256       .  A
C103       C3141   1.473       .  S
O104       Cr109   1.963       .  S
O105       Cr109   2.000       .  S
O105        C106   1.263       .  A
C106       C3173   1.483       .  S
Cr107       O110   1.767       .  S
Cr108       O110   1.767       .  S
Cr109       O110   1.766       .  S
O111       Cr129   2.011       .  S
O111        C119   1.266       .  A
O112       Cr129   1.976       .  S
O112        C113   1.261       .  A
C113        O114   1.267       .  A
C113       C2917   1.477       .  S
O114       Cr130   2.008       .  S
O115       Cr130   1.966       .  S
O115        C116   1.259       .  A
C116        O117   1.270       .  A
C116       C2949   1.487       .  S
O117       Cr131   2.015       .  S
O118       Cr131   1.972       .  S
O118        C119   1.258       .  A
C119       C3310   1.479       .  S
O120       Cr129   1.971       .  S
O120        C128   1.258       .  A
O121       Cr129   2.004       .  S
O121        C122   1.263       .  A
C122        O123   1.260       .  A
C122       C3182   1.487       .  S
O123       Cr130   1.971       .  S
O124       Cr130   2.005       .  S
O124        C125   1.264       .  A
C125        O126   1.256       .  A
C125       C3013   1.477       .  S
O126       Cr131   1.971       .  S
O127       Cr131   2.018       .  S
O127        C128   1.269       .  A
C128       C2981   1.480       .  S
Cr129       O132   1.768       .  S
Cr130       O132   1.766       .  S
Cr131       O132   1.768       .  S
O133       Cr151   1.978       .  S
O133        C141   1.259       .  A
O134       Cr151   2.013       .  S
O134        C135   1.268       .  A
C135        O136   1.259       .  A
C135       C3470   1.472       .  S
O136       Cr152   1.968       .  S
O137       Cr152   2.001       .  S
O137        C138   1.266       .  A
C138        O139   1.262       .  A
C138       C2821   1.472       .  S
O139       Cr153   1.976       .  S
O140       Cr153   2.009       .  S
O140        C141   1.265       .  A
C141       C2853   1.483       .  S
O142       Cr151   2.013       .  S
O142        C150   1.267       .  A
O143       Cr151   1.977       .  S
O143        C144   1.259       .  A
C144        O145   1.262       .  A
C144       C3150   1.481       .  S
O145       Cr152   1.999       .  S
O146       Cr152   1.973       .  S
O146        C147   1.258       .  A
C147        O148   1.264       .  A
C147       C2885   1.486       .  S
O148       Cr153   2.009       .  S
O149       Cr153   1.963       .  S
O149        C150   1.257       .  A
C150       C3022   1.467       .  S
Cr151       O154   1.769       .  S
Cr152       O154   1.766       .  S
Cr153       O154   1.769       .  S
O155       Cr173   1.986       .  S
O155        C163   1.262       .  A
O156       Cr173   2.017       .  S
O156        C157   1.269       .  A
C157        O158   1.261       .  A
C157       C3246   1.476       .  S
O158       Cr174   1.972       .  S
O159       Cr174   2.014       .  S
O159        C160   1.268       .  A
C160        O161   1.262       .  A
C160       C2766   1.481       .  S
O161       Cr175   1.976       .  S
O162       Cr175   1.993       .  S
O162        C163   1.261       .  A
C163       C2789   1.494       .  S
O164       Cr173   2.019       .  S
O164        C172   1.269       .  A
O165       Cr173   1.978       .  S
O165        C166   1.259       .  A
C166        O167   1.263       .  A
C166       C2990   1.489       .  S
O167       Cr174   2.004       .  S
O168       Cr174   1.976       .  S
O168        C169   1.258       .  A
C169        O170   1.261       .  A
C169       C2894   1.469       .  S
O170       Cr175   1.996       .  S
O171       Cr175   1.969       .  S
O171        C172   1.258       .  A
C172       C3118   1.484       .  S
Cr173       O176   1.771       .  S
Cr174       O176   1.771       .  S
Cr175       O176   1.769       .  S
O177       Cr195   1.980       .  S
O177        C185   1.261       .  A
O178       Cr195   2.020       .  S
O178        C179   1.270       .  A
C179        O180   1.260       .  A
C179       C3630   1.478       .  S
O180       Cr196   1.971       .  S
O181       Cr196   2.007       .  S
O181        C182   1.265       .  A
C182        O183   1.262       .  A
C182       C2597   1.495       .  S
O183       Cr197   1.978       .  S
O184       Cr197   2.009       .  S
O184        C185   1.267       .  A
C185       C2638   1.480       .  S
O186       Cr195   2.009       .  S
O186        C194   1.266       .  A
O187       Cr195   1.976       .  S
O187        C188   1.256       .  A
C188        O189   1.263       .  A
C188       C2693   1.468       .  S
O189       Cr196   2.005       .  S
O190       Cr196   1.969       .  S
O190        C191   1.257       .  A
C191        O192   1.266       .  A
C191       C2661   1.472       .  S
O192       Cr197   2.014       .  S
O193       Cr197   1.975       .  S
O193        C194   1.259       .  A
C194       C2734   1.476       .  S
Cr195       O198   1.769       .  S
Cr196       O198   1.769       .  S
Cr197       O198   1.770       .  S
O199       Cr217   2.012       .  S
O199        C207   1.267       .  A
O200       Cr217   1.968       .  S
O200        C201   1.259       .  A
C201        O202   1.268       .  A
C201       C2469   1.476       .  S
O202       Cr218   2.011       .  S
O203       Cr218   1.973       .  S
O203        C204   1.260       .  A
C204        O205   1.267       .  A
C204       C3438   1.479       .  S
O205       Cr219   2.009       .  S
O206       Cr219   1.976       .  S
O206        C207   1.261       .  A
C207       C2501   1.491       .  S
O208       Cr217   1.970       .  S
O208        C216   1.257       .  A
O209       Cr217   2.009       .  S
O209        C210   1.264       .  A
C210        O211   1.258       .  A
C210       C2725   1.483       .  S
O211       Cr218   1.972       .  S
O212       Cr218   2.010       .  S
O212        C213   1.266       .  A
C213        O214   1.259       .  A
C213       C2533   1.476       .  S
O214       Cr219   1.972       .  S
O215       Cr219   2.013       .  S
O215        C216   1.267       .  A
C216       C2565   1.489       .  S
Cr217       O220   1.768       .  S
Cr218       O220   1.768       .  S
Cr219       O220   1.767       .  S
O221       Cr239   2.019       .  S
O221        C229   1.269       .  A
O222       Cr239   1.978       .  S
O222        C223   1.261       .  A
C223        O224   1.265       .  A
C223       C2405   1.479       .  S
O224       Cr240   2.006       .  S
O225       Cr240   1.973       .  S
O225        C226   1.260       .  A
C226        O227   1.270       .  A
C226       C2373   1.496       .  S
O227       Cr241   2.016       .  S
O228       Cr241   1.974       .  S
O228        C229   1.260       .  A
C229       C3342   1.484       .  S
O230       Cr239   1.970       .  S
O230        C238   1.259       .  A
O231       Cr239   2.014       .  S
O231        C232   1.268       .  A
C232        O233   1.259       .  A
C232       C2574   1.497       .  S
O233       Cr240   1.975       .  S
O234       Cr240   2.007       .  S
O234        C235   1.263       .  A
C235        O236   1.257       .  A
C235       C2437   1.476       .  S
O236       Cr241   1.972       .  S
O237       Cr241   2.012       .  S
O237        C238   1.265       .  A
C238       C2702   1.490       .  S
Cr239       O242   1.770       .  S
Cr240       O242   1.770       .  S
Cr241       O242   1.772       .  S
O243       Cr261   1.976       .  S
O243        C251   1.260       .  A
O244       Cr261   2.011       .  S
O244        C245   1.267       .  A
C245        O246   1.261       .  A
C245       C3214   1.474       .  S
O246       Cr262   1.977       .  S
O247       Cr262   2.003       .  S
O247        C248   1.267       .  A
C248        O249   1.262       .  A
C248       C2341   1.482       .  S
O249       Cr263   1.982       .  S
O250       Cr263   2.008       .  S
O250        C251   1.266       .  A
C251       C2309   1.477       .  S
O252       Cr261   2.013       .  S
O252        C260   1.265       .  A
O253       Cr261   1.977       .  S
O253        C254   1.259       .  A
C254        O255   1.261       .  A
C254       C2542   1.486       .  S
O255       Cr262   1.999       .  S
O256       Cr262   1.978       .  S
O256        C257   1.258       .  A
C257        O258   1.265       .  A
C257       C2670   1.484       .  S
O258       Cr263   2.009       .  S
O259       Cr263   1.980       .  S
O259        C260   1.262       .  A
C260       C2446   1.487       .  S
Cr261       O264   1.768       .  S
Cr262       O264   1.767       .  S
Cr263       O264   1.770       .  S
O265       Cr283   2.013       .  S
O265        C273   1.268       .  A
O266       Cr283   1.976       .  S
O266        C267   1.259       .  A
C267        O268   1.263       .  A
C267       C2181   1.479       .  S
O268       Cr284   2.000       .  S
O269       Cr284   1.963       .  S
O269        C270   1.258       .  A
C270        O271   1.271       .  A
C270       C3077   1.483       .  S
O271       Cr285   2.016       .  S
O272       Cr285   1.974       .  S
O272        C273   1.260       .  A
C273       C2629   1.481       .  S
O274       Cr283   1.970       .  S
O274        C282   1.259       .  A
O275       Cr283   2.012       .  S
O275        C276   1.268       .  A
C276        O277   1.258       .  A
C276       C2286   1.477       .  S
O277       Cr284   1.966       .  S
O278       Cr284   1.997       .  S
O278        C279   1.260       .  A
C279        O280   1.260       .  A
C279       C2213   1.490       .  S
O280       Cr285   1.983       .  S
O281       Cr285   2.016       .  S
O281        C282   1.267       .  A
C282       C2245   1.490       .  S
Cr283       O286   1.764       .  S
Cr284       O286   1.763       .  S
Cr285       O286   1.766       .  S
O287       Cr305   2.010       .  S
O287        C295   1.267       .  A
O288       Cr305   1.975       .  S
O288        C289   1.262       .  A
C289        O290   1.267       .  A
C289       C2757   1.481       .  S
O290       Cr306   2.011       .  S
O291       Cr306   1.977       .  S
O291        C292   1.260       .  A
C292        O293   1.265       .  A
C292       C2318   1.474       .  S
O293       Cr307   2.003       .  S
O294       Cr307   1.980       .  S
O294        C295   1.261       .  A
C295       C2085   1.482       .  S
O296       Cr305   1.972       .  S
O296        C304   1.257       .  A
O297       Cr305   2.005       .  S
O297        C298   1.263       .  A
C298        O299   1.260       .  A
C298       C2126   1.485       .  S
O299       Cr306   1.978       .  S
O300       Cr306   2.005       .  S
O300        C301   1.267       .  A
C301        O302   1.259       .  A
C301       C2149   1.494       .  S
O302       Cr307   1.979       .  S
O303       Cr307   2.002       .  S
O303        C304   1.264       .  A
C304       C2277   1.471       .  S
Cr305       O308   1.769       .  S
Cr306       O308   1.767       .  S
Cr307       O308   1.771       .  S
O309       Cr327   1.977       .  S
O309        C317   1.260       .  A
O310       Cr327   2.019       .  S
O310        C311   1.270       .  A
C311        O312   1.259       .  A
C311       C2021   1.491       .  S
O312       Cr328   1.972       .  S
O313       Cr328   2.000       .  S
O313        C314   1.263       .  A
C314        O315   1.262       .  A
C314       C2830   1.494       .  S
O315       Cr329   1.984       .  S
O316       Cr329   2.003       .  S
O316        C317   1.264       .  A
C317       C2478   1.482       .  S
O318       Cr327   2.013       .  S
O318        C326   1.268       .  A
O319       Cr327   1.977       .  S
O319        C320   1.259       .  A
C320        O321   1.263       .  A
C320       C2062   1.481       .  S
O321       Cr328   2.008       .  S
O322       Cr328   1.969       .  S
O322        C323   1.257       .  A
C323        O324   1.266       .  A
C323       C2117   1.471       .  S
O324       Cr329   2.014       .  S
O325       Cr329   1.980       .  S
O325        C326   1.262       .  A
C326       C2254   1.480       .  S
Cr327       O330   1.767       .  S
Cr328       O330   1.768       .  S
Cr329       O330   1.773       .  S
O331       Cr349   2.000       .  S
O331        C339   1.263       .  A
O332       Cr349   1.973       .  S
O332        C333   1.259       .  A
C333        O334   1.269       .  A
C333       C2926   1.495       .  S
O334       Cr350   2.016       .  S
O335       Cr350   1.967       .  S
O335        C336   1.258       .  A
C336        O337   1.270       .  A
C336       C2382   1.491       .  S
O337       Cr351   2.020       .  S
O338       Cr351   1.977       .  S
O338        C339   1.260       .  A
C339       C1989   1.478       .  S
O340       Cr349   1.971       .  S
O340        C348   1.259       .  A
O341       Cr349   2.001       .  S
O341        C342   1.263       .  A
C342        O343   1.258       .  A
C342       C2222   1.472       .  S
O343       Cr350   1.971       .  S
O344       Cr350   2.011       .  S
O344        C345   1.267       .  A
C345        O346   1.258       .  A
C345       C2158   1.493       .  S
O346       Cr351   1.974       .  S
O347       Cr351   2.021       .  S
O347        C348   1.270       .  A
C348       C2053   1.484       .  S
Cr349       O352   1.765       .  S
Cr350       O352   1.765       .  S
Cr351       O352   1.765       .  S
O353       Cr371   2.023       .  S
O353        C361   1.270       .  A
O354       Cr371   1.971       .  S
O354        C355   1.260       .  A
C355        O356   1.266       .  A
C355       C1861   1.470       .  S
O356       Cr372   2.006       .  S
O357       Cr372   1.973       .  S
O357        C358   1.260       .  A
C358        O359   1.268       .  A
C358       C1829   1.481       .  S
O359       Cr373   2.016       .  S
O360       Cr373   1.966       .  S
O360        C361   1.260       .  A
C361       C3598   1.482       .  S
O362       Cr371   1.976       .  S
O362        C370   1.258       .  A
O363       Cr371   2.013       .  S
O363        C364   1.268       .  A
C364        O365   1.257       .  A
C364       C1934   1.492       .  S
O365       Cr372   1.970       .  S
O366       Cr372   2.009       .  S
O366        C367   1.264       .  A
C367        O368   1.258       .  A
C367       C1957   1.471       .  S
O368       Cr373   1.972       .  S
O369       Cr373   2.008       .  S
O369        C370   1.264       .  A
C370       C1893   1.480       .  S
Cr371       O374   1.769       .  S
Cr372       O374   1.770       .  S
Cr373       O374   1.768       .  S
O375       Cr393   1.968       .  S
O375        C383   1.259       .  A
O376       Cr393   2.016       .  S
O376        C377   1.268       .  A
C377        O378   1.263       .  A
C377       C1701   1.492       .  S
O378       Cr394   1.987       .  S
O379       Cr394   2.007       .  S
O379        C380   1.266       .  A
C380        O381   1.259       .  A
C380       C1742   1.468       .  S
O381       Cr395   1.970       .  S
O382       Cr395   2.006       .  S
O382        C383   1.266       .  A
C383       C3374   1.483       .  S
O384       Cr393   2.014       .  S
O384        C392   1.266       .  A
O385       Cr393   1.971       .  S
O385        C386   1.258       .  A
C386        O387   1.266       .  A
C386       C1765   1.489       .  S
O387       Cr394   2.005       .  S
O388       Cr394   1.984       .  S
O388        C389   1.262       .  A
C389        O390   1.263       .  A
C389       C1966   1.490       .  S
O390       Cr395   2.002       .  S
O391       Cr395   1.973       .  S
O391        C392   1.257       .  A
C392       C1797   1.482       .  S
Cr393       O396   1.768       .  S
Cr394       O396   1.769       .  S
Cr395       O396   1.770       .  S
O397       Cr415   2.008       .  S
O397        C405   1.268       .  A
O398       Cr415   1.976       .  S
O398        C399   1.260       .  A
C399        O400   1.265       .  A
C399       C3502   1.478       .  S
O400       Cr416   2.008       .  S
O401       Cr416   1.973       .  S
O401        C402   1.261       .  A
C402        O403   1.266       .  A
C402       C1637   1.490       .  S
O403       Cr417   2.009       .  S
O404       Cr417   1.969       .  S
O404        C405   1.259       .  A
C405       C1605   1.477       .  S
O406       Cr415   1.973       .  S
O406        C414   1.257       .  A
O407       Cr415   2.010       .  S
O407        C408   1.266       .  A
C408        O409   1.260       .  A
C408       C1806   1.479       .  S
O409       Cr416   1.971       .  S
O410       Cr416   2.007       .  S
O410        C411   1.264       .  A
C411        O412   1.258       .  A
C411       C1925   1.476       .  S
O412       Cr417   1.972       .  S
O413       Cr417   2.005       .  S
O413        C414   1.266       .  A
C414       C1669   1.483       .  S
Cr415       O418   1.769       .  S
Cr416       O418   1.768       .  S
Cr417       O418   1.768       .  S
O419       Cr437   1.978       .  S
O419        C427   1.261       .  A
O420       Cr437   2.014       .  S
O420        C421   1.269       .  A
C421        O422   1.259       .  A
C421       C1550   1.493       .  S
O422       Cr438   1.976       .  S
O423       Cr438   2.008       .  S
O423        C424   1.267       .  A
C424        O425   1.259       .  A
C424       C3278   1.468       .  S
O425       Cr439   1.968       .  S
O426       Cr439   2.013       .  S
O426        C427   1.268       .  A
C427       C1573   1.480       .  S
O428       Cr437   2.014       .  S
O428        C436   1.266       .  A
O429       Cr437   1.977       .  S
O429        C430   1.261       .  A
C430        O431   1.265       .  A
C430       C1678   1.485       .  S
O431       Cr438   2.013       .  S
O432       Cr438   1.971       .  S
O432        C433   1.256       .  A
C433        O434   1.265       .  A
C433       C1902   1.481       .  S
O434       Cr439   2.011       .  S
O435       Cr439   1.966       .  S
O435        C436   1.257       .  A
C436       C1774   1.481       .  S
Cr437       O440   1.766       .  S
Cr438       O440   1.766       .  S
Cr439       O440   1.771       .  S
O441       Cr459   2.018       .  S
O441        C449   1.269       .  A
O442       Cr459   1.968       .  S
O442        C443   1.260       .  A
C443        O444   1.269       .  A
C443       C1646   1.476       .  S
O444       Cr460   2.013       .  S
O445       Cr460   1.966       .  S
O445        C446   1.258       .  A
C446        O447   1.270       .  A
C446       C2862   1.477       .  S
O447       Cr461   2.021       .  S
O448       Cr461   1.966       .  S
O448        C449   1.257       .  A
C449       C1413   1.485       .  S
O450       Cr459   1.967       .  S
O450        C458   1.258       .  A
O451       Cr459   2.017       .  S
O451        C452   1.266       .  A
C452        O453   1.254       .  A
C452       C1486   1.476       .  S
O453       Cr460   1.963       .  S
O454       Cr460   2.010       .  S
O454        C455   1.267       .  A
C455        O456   1.255       .  A
C455       C1445   1.484       .  S
O456       Cr461   1.962       .  S
O457       Cr461   2.024       .  S
O457        C458   1.269       .  A
C458       C1509   1.484       .  S
Cr459       O462   1.768       .  S
Cr460       O462   1.768       .  S
Cr461       O462   1.766       .  S
O463       Cr481   1.980       .  S
O463        C471   1.260       .  A
O464       Cr481   2.004       .  S
O464        C465   1.265       .  A
C465        O466   1.263       .  A
C465       C1582   1.495       .  S
O466       Cr482   1.985       .  S
O467       Cr482   2.004       .  S
O467        C468   1.265       .  A
C468        O469   1.260       .  A
C468       C2798   1.480       .  S
O469       Cr483   1.981       .  S
O470       Cr483   2.002       .  S
O470        C471   1.267       .  A
C471       C1317   1.488       .  S
O472       Cr481   2.008       .  S
O472        C480   1.266       .  A
O473       Cr481   1.979       .  S
O473        C474   1.260       .  A
C474        O475   1.266       .  A
C474       C1381   1.479       .  S
O475       Cr482   2.008       .  S
O476       Cr482   1.976       .  S
O476        C477   1.261       .  A
C477        O478   1.265       .  A
C477       C1358   1.492       .  S
O478       Cr483   2.008       .  S
O479       Cr483   1.983       .  S
O479        C480   1.261       .  A
C480       C1518   1.485       .  S
Cr481       O484   1.772       .  S
Cr482       O484   1.769       .  S
Cr483       O484   1.769       .  S
O485       Cr503   1.984       .  S
O485        C493   1.263       .  A
O486       Cr503   2.003       .  S
O486        C487   1.266       .  A
C487        O488   1.261       .  A
C487       C3054   1.476       .  S
O488       Cr504   1.980       .  S
O489       Cr504   2.006       .  S
O489        C490   1.265       .  A
C490        O491   1.261       .  A
C490       C1253   1.475       .  S
O491       Cr505   1.983       .  S
O492       Cr505   2.000       .  S
O492        C493   1.265       .  A
C493       C1870   1.482       .  S
O494       Cr503   1.999       .  S
O494        C502   1.262       .  A
O495       Cr503   1.983       .  S
O495        C496   1.259       .  A
C496        O497   1.264       .  A
C496       C1349   1.478       .  S
O497       Cr504   2.008       .  S
O498       Cr504   1.979       .  S
O498        C499   1.261       .  A
C499        O500   1.265       .  A
C499       C1285   1.485       .  S
O500       Cr505   2.008       .  S
O501       Cr505   1.979       .  S
O501        C502   1.261       .  A
C502       C1477   1.485       .  S
Cr503       O506   1.769       .  S
Cr504       O506   1.771       .  S
Cr505       O506   1.767       .  S
O507       Cr525   2.018       .  S
O507        C515   1.268       .  A
O508       Cr525   1.976       .  S
O508        C509   1.260       .  A
C509        O510   1.268       .  A
C509       C2958   1.491       .  S
O510       Cr526   2.010       .  S
O511       Cr526   1.968       .  S
O511        C512   1.260       .  A
C512        O513   1.270       .  A
C512       C1221   1.482       .  S
O513       Cr527   2.019       .  S
O514       Cr527   1.980       .  S
O514        C515   1.260       .  A
C515       C1710   1.484       .  S
O516       Cr525   1.964       .  S
O516        C524   1.257       .  A
O517       Cr525   2.018       .  S
O517        C518   1.268       .  A
C518        O519   1.256       .  A
C518       C1454   1.494       .  S
O519       Cr526   1.965       .  S
O520       Cr526   2.009       .  S
O520        C521   1.265       .  A
C521        O522   1.258       .  A
C521       C1294   1.483       .  S
O522       Cr527   1.975       .  S
O523       Cr527   2.019       .  S
O523        C524   1.270       .  A
C524       C1390   1.489       .  S
Cr525       O528   1.769       .  S
Cr526       O528   1.767       .  S
Cr527       O528   1.768       .  S
O529       Cr547   1.965       .  S
O529        C537   1.257       .  A
O530       Cr547   2.011       .  S
O530        C531   1.267       .  A
C531        O532   1.259       .  A
C531       C1093   1.472       .  S
O532       Cr548   1.972       .  S
O533       Cr548   2.009       .  S
O533        C534   1.266       .  A
C534        O535   1.263       .  A
C534       C1262   1.494       .  S
O535       Cr549   1.981       .  S
O536       Cr549   2.013       .  S
O536        C537   1.267       .  A
C537       C2190   1.473       .  S
O538       Cr547   2.013       .  S
O538        C546   1.266       .  A
O539       Cr547   1.968       .  S
O539        C540   1.257       .  A
C540        O541   1.266       .  A
C540       C1157   1.473       .  S
O541       Cr548   2.015       .  S
O542       Cr548   1.972       .  S
O542        C543   1.261       .  A
C543        O544   1.265       .  A
C543       C1198   1.489       .  S
O544       Cr549   2.007       .  S
O545       Cr549   1.982       .  S
O545        C546   1.261       .  A
C546       C1125   1.488       .  S
Cr547       O550   1.763       .  S
Cr548       O550   1.763       .  S
Cr549       O550   1.766       .  S
O551       Cr569   1.978       .  S
O551        C559   1.260       .  A
O552       Cr569   2.011       .  S
O552        C553   1.268       .  A
C553        O554   1.258       .  A
C553       C1998   1.481       .  S
O554       Cr570   1.967       .  S
O555       Cr570   2.011       .  S
O555        C556   1.267       .  A
C556        O557   1.261       .  A
C556        C997   1.473       .  S
O557       Cr571   1.977       .  S
O558       Cr571   2.008       .  S
O558        C559   1.266       .  A
C559       C1230   1.477       .  S
O560       Cr569   2.012       .  S
O560        C568   1.267       .  A
O561       Cr569   1.978       .  S
O561        C562   1.260       .  A
C562        O563   1.265       .  A
C562       C1061   1.490       .  S
O563       Cr570   2.010       .  S
O564       Cr570   1.975       .  S
O564        C565   1.258       .  A
C565        O566   1.263       .  A
C565       C1029   1.482       .  S
O566       Cr571   2.006       .  S
O567       Cr571   1.968       .  S
O567        C568   1.258       .  A
C568       C1189   1.480       .  S
Cr569       O572   1.771       .  S
Cr570       O572   1.766       .  S
Cr571       O572   1.769       .  S
O573       Cr591   2.013       .  S
O573        C581   1.267       .  A
O574       Cr591   1.975       .  S
O574        C575   1.259       .  A
C575        O576   1.265       .  A
C575       C1422   1.474       .  S
O576       Cr592   2.004       .  S
O577       Cr592   1.973       .  S
O577        C578   1.259       .  A
C578        O579   1.269       .  A
C578       C2030   1.482       .  S
O579       Cr593   2.019       .  S
O580       Cr593   1.972       .  S
O580        C581   1.258       .  A
C581        C933   1.477       .  S
O582       Cr591   1.968       .  S
O582        C590   1.257       .  A
O583       Cr591   2.015       .  S
O583        C584   1.268       .  A
C584        O585   1.259       .  A
C584        C965   1.471       .  S
O585       Cr592   1.967       .  S
O586       Cr592   2.016       .  S
O586        C587   1.266       .  A
C587        O588   1.257       .  A
C587       C1070   1.479       .  S
O588       Cr593   1.971       .  S
O589       Cr593   2.017       .  S
O589        C590   1.268       .  A
C590       C1166   1.486       .  S
Cr591       O594   1.770       .  S
Cr592       O594   1.773       .  S
Cr593       O594   1.769       .  S
O595       Cr613   1.977       .  S
O595        C603   1.262       .  A
O596       Cr613   2.015       .  S
O596        C597   1.268       .  A
C597        O598   1.260       .  A
C597       C2094   1.484       .  S
O598       Cr614   1.975       .  S
O599       Cr614   2.009       .  S
O599        C600   1.267       .  A
C600        O601   1.260       .  A
C600        C910   1.478       .  S
O601       Cr615   1.971       .  S
O602       Cr615   2.008       .  S
O602        C603   1.266       .  A
C603       C1326   1.489       .  S
O604       Cr613   2.012       .  S
O604        C612   1.267       .  A
O605       Cr613   1.979       .  S
O605        C606   1.259       .  A
C606        O607   1.268       .  A
C606       C1134   1.497       .  S
O607       Cr614   2.013       .  S
O608       Cr614   1.970       .  S
O608        C609   1.257       .  A
C609        O610   1.265       .  A
C609       C1038   1.486       .  S
O610       Cr615   2.003       .  S
O611       Cr615   1.972       .  S
O611        C612   1.257       .  A
C612        C974   1.487       .  S
Cr613       O616   1.765       .  S
Cr614       O616   1.766       .  S
Cr615       O616   1.769       .  S
O617       Cr635   1.970       .  S
O617        C625   1.259       .  A
O618       Cr635   2.008       .  S
O618        C619   1.266       .  A
C619        O620   1.260       .  A
C619       C1006   1.475       .  S
O620       Cr636   1.974       .  S
O621       Cr636   2.014       .  S
O621        C622   1.268       .  A
C622        O623   1.259       .  A
C622       C2414   1.480       .  S
O623       Cr637   1.969       .  S
O624       Cr637   2.013       .  S
O624        C625   1.267       .  A
C625       C1733   1.471       .  S
O626       Cr635   2.008       .  S
O626        C634   1.264       .  A
O627       Cr635   1.969       .  S
O627        C628   1.257       .  A
C628        O629   1.267       .  A
C628        C869   1.487       .  S
O629       Cr636   2.015       .  S
O630       Cr636   1.974       .  S
O630        C631   1.257       .  A
C631        O632   1.267       .  A
C631        C805   1.497       .  S
O632       Cr637   2.015       .  S
O633       Cr637   1.968       .  S
O633        C634   1.257       .  A
C634        C846   1.474       .  S
Cr635       O638   1.771       .  S
Cr636       O638   1.768       .  S
Cr637       O638   1.769       .  S
O639       Cr657   2.006       .  S
O639        C647   1.267       .  A
O640       Cr657   1.971       .  S
O640        C641   1.260       .  A
C641        O642   1.268       .  A
C641       C2350   1.476       .  S
O642       Cr658   2.014       .  S
O643       Cr658   1.971       .  S
O643        C644   1.259       .  A
C644        O645   1.267       .  A
C644       C1541   1.473       .  S
O645       Cr659   2.016       .  S
O646       Cr659   1.975       .  S
O646        C647   1.261       .  A
C647        C901   1.479       .  S
O648       Cr657   1.977       .  S
O648        C656   1.259       .  A
O649       Cr657   2.006       .  S
O649        C650   1.263       .  A
C650        O651   1.257       .  A
C650        C782   1.482       .  S
O651       Cr658   1.969       .  S
O652       Cr658   2.006       .  S
O652        C653   1.264       .  A
C653        O654   1.259       .  A
C653        C741   1.472       .  S
O654       Cr659   1.972       .  S
O655       Cr659   2.013       .  S
O655        C656   1.266       .  A
C656        C878   1.479       .  S
Cr657       O660   1.768       .  S
Cr658       O660   1.771       .  S
Cr659       O660   1.771       .  S
O661       Cr679   1.978       .  S
O661        C669   1.260       .  A
O662       Cr679   2.011       .  S
O662        C663   1.268       .  A
C663        O664   1.262       .  A
C663       C1838   1.481       .  S
O664       Cr680   1.982       .  S
O665       Cr680   2.007       .  S
O665        C666   1.265       .  A
C666        O667   1.260       .  A
C666       C1102   1.487       .  S
O667       Cr681   1.971       .  S
O668       Cr681   2.000       .  S
O668        C669   1.265       .  A
C669       C2606   1.482       .  S
O670       Cr679   2.007       .  S
O670        C678   1.266       .  A
O671       Cr679   1.976       .  S
O671        C672   1.260       .  A
C672        O673   1.263       .  A
C672        C837   1.493       .  S
O673       Cr680   2.005       .  S
O674       Cr680   1.981       .  S
O674        C675   1.262       .  A
C675        O676   1.264       .  A
C675        C718   1.495       .  S
O676       Cr681   2.008       .  S
O677       Cr681   1.971       .  S
O677        C678   1.259       .  A
C678        C773   1.472       .  S
Cr679       O682   1.768       .  S
Cr680       O682   1.767       .  S
Cr681       O682   1.768       .  S
O683       Cr701   1.972       .  S
O683        C691   1.260       .  A
O684       Cr701   2.006       .  S
O684        C685   1.267       .  A
C685        O686   1.260       .  A
C685        C942   1.480       .  S
O686       Cr702   1.977       .  S
O687       Cr702   2.009       .  S
O687        C688   1.267       .  A
C688        O689   1.259       .  A
C688       C2510   1.474       .  S
O689       Cr703   1.973       .  S
O690       Cr703   2.012       .  S
O690        C691   1.268       .  A
C691       C1614   1.478       .  S
O692       Cr701   2.008       .  S
O692        C700   1.264       .  A
O693       Cr701   1.969       .  S
O693        C694   1.258       .  A
C694        O695   1.266       .  A
C694        C709   1.473       .  S
O695       Cr702   2.010       .  S
O696       Cr702   1.978       .  S
O696        C697   1.260       .  A
C697        O698   1.265       .  A
C697        C814   1.490       .  S
O698       Cr703   2.010       .  S
O699       Cr703   1.972       .  S
O699        C700   1.259       .  A
C700        C750   1.487       .  S
Cr701       O704   1.769       .  S
Cr702       O704   1.769       .  S
Cr703       O704   1.767       .  S
C705        C706   1.400       .  A
C705        C710   1.401       .  A
C705        H715   1.085       .  S
C706        C711   1.479       .  S
C706        C707   1.410       .  A
C707        C708   1.404       .  A
C707        C712   1.506       .  S
C708        C709   1.404       .  A
C708        H713   1.084       .  S
C709        C710   1.418       .  A
C710        C714   1.510       .  S
C711        C716   1.408       .  A
C711        C720   1.397       .  A
C712        H728   1.110       .  S
C712        H729   1.110       .  S
C712        H730   1.111       .  S
C714        H725   1.111       .  S
C714        H726   1.111       .  S
C714        H727   1.106       .  S
C716        C717   1.403       .  A
C716        C721   1.507       .  S
C717        C718   1.410       .  A
C717        H722   1.083       .  S
C718        C719   1.425       .  A
C719        C720   1.405       .  A
C719        C723   1.509       .  S
C720        H724   1.085       .  S
C721        H731   1.111       .  S
C721        H732   1.110       .  S
C721        H733   1.110       .  S
C723        H734   1.111       .  S
C723        H735   1.111       .  S
C723        H736   1.110       .  S
C737        C738   1.400       .  A
C737        C742   1.400       .  A
C737        H747   1.084       .  S
C738        C743   1.479       .  S
C738        C739   1.411       .  A
C739        C740   1.403       .  A
C739        C744   1.506       .  S
C740        C741   1.403       .  A
C740        H745   1.084       .  S
C741        C742   1.417       .  A
C742        C746   1.508       .  S
C743        C748   1.409       .  A
C743        C752   1.400       .  A
C744        H760   1.110       .  S
C744        H761   1.110       .  S
C744        H762   1.111       .  S
C746        H757   1.110       .  S
C746        H758   1.111       .  S
C746        H759   1.106       .  S
C748        C749   1.400       .  A
C748        C753   1.507       .  S
C749        C750   1.407       .  A
C749        H754   1.084       .  S
C750        C751   1.421       .  A
C751        C752   1.405       .  A
C751        C755   1.508       .  S
C752        H756   1.084       .  S
C753        H763   1.111       .  S
C753        H764   1.110       .  S
C753        H765   1.110       .  S
C755        H766   1.111       .  S
C755        H767   1.110       .  S
C755        H768   1.110       .  S
C769        C770   1.401       .  A
C769        C774   1.403       .  A
C769        H779   1.085       .  S
C770        C775   1.476       .  S
C770        C771   1.410       .  A
C771        C772   1.400       .  A
C771        C776   1.507       .  S
C772        C773   1.403       .  A
C772        H777   1.085       .  S
C773        C774   1.417       .  A
C774        C778   1.508       .  S
C775        C780   1.408       .  A
C775        C784   1.400       .  A
C776        H792   1.110       .  S
C776        H793   1.110       .  S
C776        H794   1.111       .  S
C778        H789   1.110       .  S
C778        H790   1.111       .  S
C778        H791   1.107       .  S
C780        C781   1.400       .  A
C780        C785   1.507       .  S
C781        C782   1.407       .  A
C781        H786   1.084       .  S
C782        C783   1.420       .  A
C783        C784   1.404       .  A
C783        C787   1.508       .  S
C784        H788   1.085       .  S
C785        H795   1.111       .  S
C785        H796   1.110       .  S
C785        H797   1.110       .  S
C787        H798   1.111       .  S
C787        H799   1.111       .  S
C787        H800   1.109       .  S
C801        C802   1.398       .  A
C801        C806   1.405       .  A
C801        H811   1.084       .  S
C802        C807   1.483       .  S
C802        C803   1.408       .  A
C803        C804   1.406       .  A
C803        C808   1.506       .  S
C804        C805   1.411       .  A
C804        H809   1.083       .  S
C805        C806   1.425       .  A
C806        C810   1.509       .  S
C807        C812   1.409       .  A
C807        C816   1.400       .  A
C808        H824   1.110       .  S
C808        H825   1.110       .  S
C808        H826   1.111       .  S
C810        H821   1.110       .  S
C810        H822   1.111       .  S
C810        H823   1.110       .  S
C812        C813   1.404       .  A
C812        C817   1.507       .  S
C813        C814   1.408       .  A
C813        H818   1.085       .  S
C814        C815   1.421       .  A
C815        C816   1.406       .  A
C815        C819   1.508       .  S
C816        H820   1.085       .  S
C817        H827   1.111       .  S
C817        H828   1.110       .  S
C817        H829   1.110       .  S
C819        H830   1.110       .  S
C819        H831   1.110       .  S
C819        H832   1.111       .  S
C833        C834   1.398       .  A
C833        C838   1.403       .  A
C833        H843   1.085       .  S
C834        C839   1.478       .  S
C834        C835   1.407       .  A
C835        C836   1.402       .  A
C835        C840   1.507       .  S
C836        C837   1.411       .  A
C836        H841   1.083       .  S
C837        C838   1.424       .  A
C838        C842   1.509       .  S
C839        C844   1.410       .  A
C839        C848   1.400       .  A
C840        H856   1.110       .  S
C840        H857   1.110       .  S
C840        H858   1.111       .  S
C842        H853   1.111       .  S
C842        H854   1.110       .  S
C842        H855   1.110       .  S
C844        C845   1.403       .  A
C844        C849   1.506       .  S
C845        C846   1.404       .  A
C845        H850   1.084       .  S
C846        C847   1.416       .  A
C847        C848   1.401       .  A
C847        C851   1.510       .  S
C848        H852   1.084       .  S
C849        H859   1.111       .  S
C849        H860   1.110       .  S
C849        H861   1.110       .  S
C851        H862   1.109       .  S
C851        H863   1.111       .  S
C851        H864   1.111       .  S
C865        C866   1.399       .  A
C865        C870   1.403       .  A
C865        H875   1.084       .  S
C866        C871   1.481       .  S
C866        C867   1.409       .  A
C867        C868   1.405       .  A
C867        C872   1.506       .  S
C868        C869   1.407       .  A
C868        H873   1.083       .  S
C869        C870   1.420       .  A
C870        C874   1.508       .  S
C871        C876   1.410       .  A
C871        C880   1.400       .  A
C872        H888   1.110       .  S
C872        H889   1.110       .  S
C872        H890   1.111       .  S
C874        H885   1.109       .  S
C874        H886   1.111       .  S
C874        H887   1.111       .  S
C876        C877   1.402       .  A
C876        C881   1.507       .  S
C877        C878   1.404       .  A
C877        H882   1.083       .  S
C878        C879   1.418       .  A
C879        C880   1.404       .  A
C879        C883   1.508       .  S
C880        H884   1.085       .  S
C881        H891   1.111       .  S
C881        H892   1.110       .  S
C881        H893   1.111       .  S
C883        H894   1.111       .  S
C883        H895   1.104       .  S
C883        H896   1.110       .  S
C897        C898   1.401       .  A
C897        C902   1.405       .  A
C897        H907   1.084       .  S
C898        C903   1.477       .  S
C898        C899   1.408       .  A
C899        C900   1.399       .  A
C899        C904   1.508       .  S
C900        C901   1.406       .  A
C900        H905   1.083       .  S
C901        C902   1.419       .  A
C902        C906   1.508       .  S
C903        C908   1.409       .  A
C903        C912   1.401       .  A
C904        H920   1.110       .  S
C904        H921   1.110       .  S
C904        H922   1.111       .  S
C906        H917   1.110       .  S
C906        H918   1.111       .  S
C906        H919   1.106       .  S
C908        C909   1.402       .  A
C908        C913   1.507       .  S
C909        C910   1.405       .  A
C909        H914   1.084       .  S
C910        C911   1.416       .  A
C911        C912   1.404       .  A
C911        C915   1.508       .  S
C912        H916   1.084       .  S
C913        H923   1.111       .  S
C913        H924   1.110       .  S
C913        H925   1.110       .  S
C915        H926   1.111       .  S
C915        H927   1.110       .  S
C915        H928   1.109       .  S
C929        C930   1.399       .  A
C929        C934   1.402       .  A
C929        H939   1.085       .  S
C930        C935   1.480   1_545  S
C930        C931   1.410       .  A
C931        C932   1.405       .  A
C931        C936   1.506       .  S
C932        C933   1.405       .  A
C932        H937   1.084       .  S
C933        C934   1.419       .  A
C934        C938   1.509       .  S
C935        C940   1.410       .  A
C935        C944   1.402       .  A
C936        H952   1.110       .  S
C936        H953   1.110       .  S
C936        H954   1.111       .  S
C938        H949   1.111       .  S
C938        H950   1.110       .  S
C938        H951   1.105       .  S
C940        C941   1.399       .  A
C940        C945   1.508       .  S
C941        C942   1.404       .  A
C941        H946   1.084       .  S
C942        C943   1.420       .  A
C943        C944   1.407       .  A
C943        C947   1.509       .  S
C944        H948   1.084       .  S
C945        H955   1.111       .  S
C945        H956   1.110   1_565  S
C945        H957   1.110   1_565  S
C947        H958   1.110       .  S
C947        H959   1.106       .  S
C947        H960   1.111       .  S
C961        C962   1.401       .  A
C961        C966   1.402       .  A
C961        H971   1.084       .  S
C962        C967   1.479       .  S
C962        C963   1.411       .  A
C963        C964   1.404       .  A
C963        C968   1.506       .  S
C964        C965   1.402       .  A
C964        H969   1.084       .  S
C965        C966   1.415       .  A
C966        C970   1.508       .  S
C967        C972   1.408       .  A
C967        C976   1.400       .  A
C968        H984   1.110       .  S
C968        H985   1.110       .  S
C968        H986   1.111       .  S
C970        H981   1.111       .  S
C970        H982   1.110       .  S
C970        H983   1.108       .  S
C972        C973   1.402       .  A
C972        C977   1.507       .  S
C973        C974   1.407       .  A
C973        H978   1.083       .  S
C974        C975   1.422       .  A
C975        C976   1.405       .  A
C975        C979   1.510       .  S
C976        H980   1.084       .  S
C977        H987   1.111       .  S
C977        H988   1.110       .  S
C977        H989   1.110       .  S
C979        H990   1.110       .  S
C979        H991   1.110       .  S
C979        H992   1.111       .  S
C993        C994   1.401       .  A
C993        C998   1.400       .  A
C993       H1003   1.085       .  S
C994        C999   1.483       .  S
C994        C995   1.412       .  A
C995        C996   1.406       .  A
C995       C1000   1.506       .  S
C996        C997   1.404       .  A
C996       H1001   1.085       .  S
C997        C998   1.415       .  A
C998       C1002   1.507       .  S
C999       C1004   1.411       .  A
C999       C1008   1.401       .  A
C1000      H1016   1.109       .  S
C1000      H1017   1.110       .  S
C1000      H1018   1.111       .  S
C1002      H1013   1.110       .  S
C1002      H1014   1.110       .  S
C1002      H1015   1.106       .  S
C1004      C1005   1.404       .  A
C1004      C1009   1.506       .  S
C1005      C1006   1.404       .  A
C1005      H1010   1.085       .  S
C1006      C1007   1.417       .  A
C1007      C1008   1.402       .  A
C1007      C1011   1.509       .  S
C1008      H1012   1.086       .  S
C1009      H1019   1.111       .  S
C1009      H1020   1.109       .  S
C1009      H1021   1.110       .  S
C1011      H1022   1.111       .  S
C1011      H1023   1.106       .  S
C1011      H1024   1.110       .  S
C1025      C1026   1.398       .  A
C1025      C1030   1.401       .  A
C1025      H1035   1.085       .  S
C1026      C1031   1.478       .  S
C1026      C1027   1.410       .  A
C1027      C1028   1.403       .  A
C1027      C1032   1.507       .  S
C1028      C1029   1.407       .  A
C1028      H1033   1.084       .  S
C1029      C1030   1.418       .  A
C1030      C1034   1.505       .  S
C1031      C1036   1.408       .  A
C1031      C1040   1.399       .  A
C1032      H1048   1.110       .  S
C1032      H1049   1.110       .  S
C1032      H1050   1.111       .  S
C1034      H1045   1.111       .  S
C1034      H1046   1.109       .  S
C1034      H1047   1.111       .  S
C1036      C1037   1.400       .  A
C1036      C1041   1.507       .  S
C1037      C1038   1.407       .  A
C1037      H1042   1.084       .  S
C1038      C1039   1.422       .  A
C1039      C1040   1.403       .  A
C1039      C1043   1.510       .  S
C1040      H1044   1.084       .  S
C1041      H1051   1.111       .  S
C1041      H1052   1.110       .  S
C1041      H1053   1.110       .  S
C1043      H1054   1.111       .  S
C1043      H1055   1.110       .  S
C1043      H1056   1.110       .  S
C1057      C1058   1.400       .  A
C1057      C1062   1.405       .  A
C1057      H1067   1.084       .  S
C1058      C1063   1.484       .  S
C1058      C1059   1.410       .  A
C1059      C1060   1.404       .  A
C1059      C1064   1.507       .  S
C1060      C1061   1.408       .  A
C1060      H1065   1.083       .  S
C1061      C1062   1.421       .  A
C1062      C1066   1.508       .  S
C1063      C1068   1.412       .  A
C1063      C1072   1.401       .  A
C1064      H1080   1.109       .  S
C1064      H1081   1.110       .  S
C1064      H1082   1.111       .  S
C1066      H1077   1.109       .  S
C1066      H1078   1.111       .  S
C1066      H1079   1.109       .  S
C1068      C1069   1.405       .  A
C1068      C1073   1.506       .  S
C1069      C1070   1.405       .  A
C1069      H1074   1.083       .  S
C1070      C1071   1.416       .  A
C1071      C1072   1.403       .  A
C1071      C1075   1.509       .  S
C1072      H1076   1.084       .  S
C1073      H1083   1.111       .  S
C1073      H1084   1.109       .  S
C1073      H1085   1.110       .  S
C1075      H1086   1.111       .  S
C1075      H1087   1.111       .  S
C1075      H1088   1.108       .  S
C1089      C1090   1.400       .  A
C1089      C1094   1.403       .  A
C1089      H1099   1.084       .  S
C1090      C1095   1.475   1_545  S
C1090      C1091   1.410       .  A
C1091      C1092   1.401       .  A
C1091      C1096   1.508       .  S
C1092      C1093   1.403       .  A
C1092      H1097   1.084       .  S
C1093      C1094   1.417       .  A
C1094      C1098   1.508       .  S
C1095      C1100   1.407       .  A
C1095      C1104   1.398       .  A
C1096      H1112   1.110   1_545  S
C1096      H1113   1.110   1_545  S
C1096      H1114   1.111       .  S
C1098      H1109   1.111       .  S
C1098      H1110   1.110       .  S
C1098      H1111   1.107       .  S
C1100      C1101   1.401       .  A
C1100      C1105   1.507       .  S
C1101      C1102   1.409       .  A
C1101      H1106   1.083       .  S
C1102      C1103   1.422       .  A
C1103      C1104   1.403       .  A
C1103      C1107   1.509       .  S
C1104      H1108   1.085       .  S
C1105      H1115   1.111       .  S
C1105      H1116   1.110       .  S
C1105      H1117   1.109       .  S
C1107      H1118   1.111       .  S
C1107      H1119   1.111       .  S
C1107      H1120   1.109       .  S
C1121      C1122   1.403       .  A
C1121      C1126   1.407       .  A
C1121      H1131   1.083       .  S
C1122      C1127   1.490       .  S
C1122      C1123   1.413       .  A
C1123      C1124   1.406       .  A
C1123      C1128   1.507       .  S
C1124      C1125   1.407       .  A
C1124      H1129   1.084       .  S
C1125      C1126   1.418       .  A
C1126      C1130   1.508       .  S
C1127      C1132   1.411       .  A
C1127      C1136   1.401       .  A
C1128      H1144   1.109       .  S
C1128      H1145   1.111       .  S
C1128      H1146   1.111       .  S
C1130      H1141   1.111       .  S
C1130      H1142   1.111       .  S
C1130      H1143   1.109       .  S
C1132      C1133   1.406       .  A
C1132      C1137   1.507       .  S
C1133      C1134   1.409       .  A
C1133      H1138   1.084       .  S
C1134      C1135   1.424       .  A
C1135      C1136   1.407       .  A
C1135      C1139   1.509       .  S
C1136      H1140   1.085       .  S
C1137      H1147   1.111       .  S
C1137      H1148   1.109       .  S
C1137      H1149   1.110       .  S
C1139      H1150   1.110       .  S
C1139      H1151   1.110       .  S
C1139      H1152   1.111       .  S
C1153      C1154   1.401       .  A
C1153      C1158   1.403       .  A
C1153      H1163   1.084       .  S
C1154      C1159   1.480       .  S
C1154      C1155   1.410       .  A
C1155      C1156   1.404       .  A
C1155      C1160   1.506       .  S
C1156      C1157   1.403       .  A
C1156      H1161   1.085       .  S
C1157      C1158   1.415       .  A
C1158      C1162   1.509       .  S
C1159      C1164   1.409       .  A
C1159      C1168   1.399       .  A
C1160      H1176   1.110       .  S
C1160      H1177   1.110       .  S
C1160      H1178   1.111       .  S
C1162      H1173   1.111       .  S
C1162      H1174   1.111       .  S
C1162      H1175   1.110       .  S
C1164      C1165   1.404       .  A
C1164      C1169   1.507       .  S
C1165      C1166   1.406       .  A
C1165      H1170   1.083       .  S
C1166      C1167   1.420       .  A
C1167      C1168   1.405       .  A
C1167      C1171   1.508       .  S
C1168      H1172   1.084       .  S
C1169      H1179   1.111       .  S
C1169      H1180   1.110       .  S
C1169      H1181   1.110       .  S
C1171      H1182   1.109       .  S
C1171      H1183   1.110       .  S
C1171      H1184   1.111       .  S
C1185      C1186   1.400       .  A
C1185      C1190   1.402       .  A
C1185      H1195   1.085       .  S
C1186      C1191   1.481       .  S
C1186      C1187   1.411       .  A
C1187      C1188   1.404       .  A
C1187      C1192   1.507       .  S
C1188      C1189   1.405       .  A
C1188      H1193   1.084       .  S
C1189      C1190   1.418       .  A
C1190      C1194   1.510       .  S
C1191      C1196   1.409       .  A
C1191      C1200   1.400       .  A
C1192      H1208   1.109       .  S
C1192      H1209   1.110       .  S
C1192      H1210   1.111       .  S
C1194      H1205   1.111       .  S
C1194      H1206   1.109       .  S
C1194      H1207   1.111       .  S
C1196      C1197   1.400       .  A
C1196      C1201   1.508       .  S
C1197      C1198   1.408       .  A
C1197      H1202   1.083       .  S
C1198      C1199   1.422       .  A
C1199      C1200   1.405       .  A
C1199      C1203   1.509       .  S
C1200      H1204   1.084       .  S
C1201      H1211   1.111       .  S
C1201      H1212   1.109       .  S
C1201      H1213   1.110       .  S
C1203      H1214   1.111       .  S
C1203      H1215   1.110       .  S
C1203      H1216   1.111       .  S
C1217      C1218   1.400       .  A
C1217      C1222   1.404       .  A
C1217      H1227   1.084       .  S
C1218      C1223   1.479   1_655  S
C1218      C1219   1.409       .  A
C1219      C1220   1.402       .  A
C1219      C1224   1.507       .  S
C1220      C1221   1.407       .  A
C1220      H1225   1.084       .  S
C1221      C1222   1.418       .  A
C1222      C1226   1.507       .  S
C1223      C1228   1.410       .  A
C1223      C1232   1.399       .  A
C1224      H1240   1.110       .  S
C1224      H1241   1.110       .  S
C1224      H1242   1.111       .  S
C1226      H1237   1.111       .  S
C1226      H1238   1.110       .  S
C1226      H1239   1.105       .  S
C1228      C1229   1.405       .  A
C1228      C1233   1.506       .  S
C1229      C1230   1.405       .  A
C1229      H1234   1.084       .  S
C1230      C1231   1.419       .  A
C1231      C1232   1.401       .  A
C1231      C1235   1.509       .  S
C1232      H1236   1.084       .  S
C1233      H1243   1.111       .  S
C1233      H1244   1.110       .  S
C1233      H1245   1.110       .  S
C1235      H1246   1.110       .  S
C1235      H1247   1.104       .  S
C1235      H1248   1.111       .  S
C1249      C1250   1.402       .  A
C1249      C1254   1.406       .  A
C1249      H1259   1.085       .  S
C1250      C1255   1.481   1_655  S
C1250      C1251   1.411       .  A
C1251      C1252   1.401       .  A
C1251      C1256   1.508       .  S
C1252      C1253   1.403       .  A
C1252      H1257   1.084       .  S
C1253      C1254   1.417       .  A
C1254      C1258   1.508       .  S
C1255      C1260   1.408       .  A
C1255      C1264   1.398       .  A
C1256      H1272   1.110   1_655  S
C1256      H1273   1.110   1_655  S
C1256      H1274   1.111       .  S
C1258      H1269   1.111       .  S
C1258      H1270   1.110       .  S
C1258      H1271   1.107       .  S
C1260      C1261   1.404       .  A
C1260      C1265   1.506       .  S
C1261      C1262   1.410       .  A
C1261      H1266   1.083       .  S
C1262      C1263   1.424       .  A
C1263      C1264   1.405       .  A
C1263      C1267   1.509       .  S
C1264      H1268   1.084       .  S
C1265      H1275   1.111       .  S
C1265      H1276   1.110       .  S
C1265      H1277   1.110       .  S
C1267      H1278   1.111       .  S
C1267      H1279   1.110       .  S
C1267      H1280   1.110       .  S
C1281      C1282   1.400       .  A
C1281      C1286   1.405       .  A
C1281      H1291   1.084       .  S
C1282      C1287   1.483       .  S
C1282      C1283   1.410       .  A
C1283      C1284   1.403       .  A
C1283      C1288   1.506       .  S
C1284      C1285   1.405       .  A
C1284      H1289   1.084       .  S
C1285      C1286   1.420       .  A
C1286      C1290   1.507       .  S
C1287      C1292   1.409       .  A
C1287      C1296   1.400       .  A
C1288      H1304   1.110       .  S
C1288      H1305   1.110       .  S
C1288      H1306   1.111       .  S
C1290      H1301   1.109       .  S
C1290      H1302   1.111       .  S
C1290      H1303   1.108       .  S
C1292      C1293   1.405       .  A
C1292      C1297   1.506       .  S
C1293      C1294   1.407       .  A
C1293      H1298   1.083       .  S
C1294      C1295   1.421       .  A
C1295      C1296   1.403       .  A
C1295      C1299   1.510       .  S
C1296      H1300   1.084       .  S
C1297      H1307   1.111       .  S
C1297      H1308   1.110       .  S
C1297      H1309   1.110       .  S
C1299      H1310   1.111       .  S
C1299      H1311   1.103       .  S
C1299      H1312   1.111       .  S
C1313      C1314   1.400       .  A
C1313      C1318   1.407       .  A
C1313      H1323   1.084       .  S
C1314      C1319   1.479       .  S
C1314      C1315   1.408       .  A
C1315      C1316   1.399       .  A
C1315      C1320   1.508       .  S
C1316      C1317   1.408       .  A
C1316      H1321   1.084       .  S
C1317      C1318   1.423       .  A
C1318      C1322   1.508       .  S
C1319      C1324   1.408       .  A
C1319      C1328   1.398       .  A
C1320      H1336   1.110       .  S
C1320      H1337   1.110       .  S
C1320      H1338   1.111       .  S
C1322      H1333   1.111       .  S
C1322      H1334   1.110       .  S
C1322      H1335   1.105       .  S
C1324      C1325   1.404       .  A
C1324      C1329   1.506       .  S
C1325      C1326   1.409       .  A
C1325      H1330   1.083       .  S
C1326      C1327   1.422       .  A
C1327      C1328   1.403       .  A
C1327      C1331   1.508       .  S
C1328      H1332   1.085       .  S
C1329      H1339   1.111       .  S
C1329      H1340   1.110       .  S
C1329      H1341   1.110       .  S
C1331      H1342   1.111       .  S
C1331      H1343   1.110       .  S
C1331      H1344   1.110       .  S
C1345      C1346   1.402       .  A
C1345      C1350   1.405       .  A
C1345      H1355   1.084       .  S
C1346      C1351   1.482       .  S
C1346      C1347   1.410       .  A
C1347      C1348   1.404       .  A
C1347      C1352   1.506       .  S
C1348      C1349   1.403       .  A
C1348      H1353   1.082       .  S
C1349      C1350   1.415       .  A
C1350      C1354   1.508       .  S
C1351      C1356   1.408       .  A
C1351      C1360   1.399       .  A
C1352      H1368   1.110       .  S
C1352      H1369   1.110       .  S
C1352      H1370   1.111       .  S
C1354      H1365   1.111       .  S
C1354      H1366   1.111       .  S
C1354      H1367   1.107       .  S
C1356      C1357   1.403       .  A
C1356      C1361   1.507       .  S
C1357      C1358   1.409       .  A
C1357      H1362   1.082       .  S
C1358      C1359   1.423       .  A
C1359      C1360   1.406       .  A
C1359      C1363   1.508       .  S
C1360      H1364   1.084       .  S
C1361      H1371   1.111       .  S
C1361      H1372   1.110       .  S
C1361      H1373   1.110       .  S
C1363      H1374   1.111       .  S
C1363      H1375   1.110       .  S
C1363      H1376   1.110       .  S
C1377      C1378   1.400       .  A
C1377      C1382   1.403       .  A
C1377      H1387   1.084       .  S
C1378      C1383   1.482       .  S
C1378      C1379   1.411       .  A
C1379      C1380   1.405       .  A
C1379      C1384   1.506       .  S
C1380      C1381   1.404       .  A
C1380      H1385   1.084       .  S
C1381      C1382   1.416       .  A
C1382      C1386   1.505       .  S
C1383      C1388   1.409       .  A
C1383      C1392   1.399       .  A
C1384      H1400   1.110       .  S
C1384      H1401   1.110       .  S
C1384      H1402   1.111       .  S
C1386      H1397   1.109       .  S
C1386      H1398   1.111       .  S
C1386      H1399   1.109       .  S
C1388      C1389   1.404       .  A
C1388      C1393   1.506       .  S
C1389      C1390   1.407       .  A
C1389      H1394   1.084       .  S
C1390      C1391   1.424       .  A
C1391      C1392   1.404       .  A
C1391      C1395   1.511       .  S
C1392      H1396   1.084       .  S
C1393      H1403   1.111       .  S
C1393      H1404   1.110       .  S
C1393      H1405   1.110       .  S
C1395      H1406   1.111       .  S
C1395      H1407   1.110       .  S
C1395      H1408   1.110       .  S
C1409      C1410   1.398       .  A
C1409      C1414   1.401       .  A
C1409      H1419   1.084       .  S
C1410      C1415   1.480       .  S
C1410      C1411   1.410       .  A
C1411      C1412   1.404       .  A
C1411      C1416   1.506       .  S
C1412      C1413   1.407       .  A
C1412      H1417   1.084       .  S
C1413      C1414   1.421       .  A
C1414      C1418   1.508       .  S
C1415      C1420   1.411       .  A
C1415      C1424   1.402       .  A
C1416      H1432   1.110       .  S
C1416      H1433   1.110       .  S
C1416      H1434   1.111       .  S
C1418      H1429   1.111       .  S
C1418      H1430   1.106       .  S
C1418      H1431   1.111       .  S
C1420      C1421   1.400       .  A
C1420      C1425   1.508       .  S
C1421      C1422   1.404       .  A
C1421      H1426   1.085       .  S
C1422      C1423   1.416       .  A
C1423      C1424   1.404       .  A
C1423      C1427   1.508       .  S
C1424      H1428   1.085       .  S
C1425      H1435   1.111       .  S
C1425      H1436   1.109       .  S
C1425      H1437   1.110       .  S
C1427      H1438   1.111       .  S
C1427      H1439   1.107       .  S
C1427      H1440   1.110       .  S
C1441      C1442   1.398       .  A
C1441      C1446   1.403       .  A
C1441      H1451   1.084       .  S
C1442      C1447   1.477       .  S
C1442      C1443   1.408       .  A
C1443      C1444   1.401       .  A
C1443      C1448   1.506       .  S
C1444      C1445   1.406       .  A
C1444      H1449   1.084       .  S
C1445      C1446   1.423       .  A
C1446      C1450   1.510       .  S
C1447      C1452   1.407       .  A
C1447      C1456   1.396       .  A
C1448      H1464   1.110       .  S
C1448      H1465   1.110       .  S
C1448      H1466   1.111       .  S
C1450      H1461   1.110       .  S
C1450      H1462   1.111       .  S
C1450      H1463   1.109       .  S
C1452      C1453   1.404       .  A
C1452      C1457   1.506       .  S
C1453      C1454   1.410       .  A
C1453      H1458   1.084       .  S
C1454      C1455   1.426       .  A
C1455      C1456   1.402       .  A
C1455      C1459   1.510       .  S
C1456      H1460   1.085       .  S
C1457      H1467   1.111       .  S
C1457      H1468   1.110       .  S
C1457      H1469   1.110       .  S
C1459      H1470   1.111       .  S
C1459      H1471   1.110       .  S
C1459      H1472   1.110       .  S
C1473      C1474   1.398       .  A
C1473      C1478   1.401       .  A
C1473      H1483   1.084       .  S
C1474      C1479   1.480       .  S
C1474      C1475   1.411       .  A
C1475      C1476   1.402       .  A
C1475      C1480   1.507       .  S
C1476      C1477   1.406       .  A
C1476      H1481   1.083       .  S
C1477      C1478   1.422       .  A
C1478      C1482   1.509       .  S
C1479      C1484   1.412       .  A
C1479      C1488   1.400       .  A
C1480      H1496   1.109       .  S
C1480      H1497   1.110       .  S
C1480      H1498   1.111       .  S
C1482      H1493   1.109       .  S
C1482      H1494   1.111       .  S
C1482      H1495   1.106       .  S
C1484      C1485   1.403       .  A
C1484      C1489   1.507       .  S
C1485      C1486   1.403       .  A
C1485      H1490   1.084       .  S
C1486      C1487   1.417       .  A
C1487      C1488   1.401       .  A
C1487      C1491   1.508       .  S
C1488      H1492   1.085       .  S
C1489      H1499   1.111       .  S
C1489      H1500   1.109       .  S
C1489      H1501   1.110       .  S
C1491      H1502   1.111       .  S
C1491      H1503   1.108       .  S
C1491      H1504   1.109       .  S
C1505      C1506   1.404       .  A
C1505      C1510   1.409       .  A
C1505      H1515   1.084       .  S
C1506      C1511   1.485       .  S
C1506      C1507   1.409       .  A
C1507      C1508   1.401       .  A
C1507      C1512   1.507       .  S
C1508      C1509   1.406       .  A
C1508      H1513   1.083       .  S
C1509      C1510   1.416       .  A
C1510      C1514   1.507       .  S
C1511      C1516   1.409       .  A
C1511      C1520   1.402       .  A
C1512      H1528   1.110       .  S
C1512      H1529   1.110       .  S
C1512      H1530   1.111       .  S
C1514      H1525   1.111       .  S
C1514      H1526   1.111       .  S
C1514      H1527   1.110       .  S
C1516      C1517   1.404       .  A
C1516      C1521   1.506       .  S
C1517      C1518   1.407       .  A
C1517      H1522   1.084       .  S
C1518      C1519   1.419       .  A
C1519      C1520   1.406       .  A
C1519      C1523   1.508       .  S
C1520      H1524   1.085       .  S
C1521      H1531   1.111       .  S
C1521      H1532   1.110       .  S
C1521      H1533   1.110       .  S
C1523      H1534   1.111       .  S
C1523      H1535   1.106       .  S
C1523      H1536   1.110       .  S
C1537      C1538   1.400       .  A
C1537      C1542   1.402       .  A
C1537      H1547   1.084       .  S
C1538      C1543   1.482       .  S
C1538      C1539   1.411       .  A
C1539      C1540   1.406       .  A
C1539      C1544   1.505       .  S
C1540      C1541   1.403       .  A
C1540      H1545   1.084       .  S
C1541      C1542   1.417       .  A
C1542      C1546   1.508       .  S
C1543      C1548   1.408       .  A
C1543      C1552   1.401       .  A
C1544      H1560   1.110       .  S
C1544      H1561   1.110       .  S
C1544      H1562   1.111       .  S
C1546      H1557   1.111       .  S
C1546      H1558   1.110       .  S
C1546      H1559   1.105       .  S
C1548      C1549   1.401       .  A
C1548      C1553   1.508       .  S
C1549      C1550   1.408       .  A
C1549      H1554   1.084       .  S
C1550      C1551   1.422       .  A
C1551      C1552   1.408       .  A
C1551      C1555   1.508       .  S
C1552      H1556   1.084       .  S
C1553      H1563   1.111       .  S
C1553      H1564   1.110       .  S
C1553      H1565   1.110       .  S
C1555      H1566   1.110       .  S
C1555      H1567   1.110       .  S
C1555      H1568   1.111       .  S
C1569      C1570   1.402       .  A
C1569      C1574   1.407       .  A
C1569      H1579   1.084       .  S
C1570      C1575   1.483       .  S
C1570      C1571   1.411       .  A
C1571      C1572   1.402       .  A
C1571      C1576   1.508       .  S
C1572      C1573   1.404       .  A
C1572      H1577   1.084       .  S
C1573      C1574   1.419       .  A
C1574      C1578   1.508       .  S
C1575      C1580   1.409       .  A
C1575      C1584   1.398       .  A
C1576      H1592   1.110       .  S
C1576      H1593   1.109       .  S
C1576      H1594   1.111       .  S
C1578      H1589   1.111       .  S
C1578      H1590   1.110       .  S
C1578      H1591   1.107       .  S
C1580      C1581   1.404       .  A
C1580      C1585   1.507       .  S
C1581      C1582   1.409       .  A
C1581      H1586   1.083       .  S
C1582      C1583   1.424       .  A
C1583      C1584   1.406       .  A
C1583      C1587   1.509       .  S
C1584      H1588   1.084       .  S
C1585      H1595   1.111       .  S
C1585      H1596   1.110       .  S
C1585      H1597   1.109       .  S
C1587      H1598   1.111       .  S
C1587      H1599   1.109       .  S
C1587      H1600   1.109       .  S
C1601      C1602   1.401       .  A
C1601      C1606   1.403       .  A
C1601      H1611   1.085       .  S
C1602      C1607   1.479       .  S
C1602      C1603   1.410       .  A
C1603      C1604   1.400       .  A
C1603      C1608   1.507       .  S
C1604      C1605   1.405       .  A
C1604      H1609   1.084       .  S
C1605      C1606   1.419       .  A
C1606      C1610   1.509       .  S
C1607      C1612   1.409       .  A
C1607      C1616   1.400       .  A
C1608      H1624   1.109       .  S
C1608      H1625   1.111       .  S
C1608      H1626   1.111       .  S
C1610      H1621   1.111       .  S
C1610      H1622   1.111       .  S
C1610      H1623   1.106       .  S
C1612      C1613   1.403       .  A
C1612      C1617   1.506       .  S
C1613      C1614   1.406       .  A
C1613      H1618   1.084       .  S
C1614      C1615   1.417       .  A
C1615      C1616   1.401       .  A
C1615      C1619   1.507       .  S
C1616      H1620   1.085       .  S
C1617      H1627   1.111       .  S
C1617      H1628   1.110       .  S
C1617      H1629   1.110       .  S
C1619      H1630   1.111       .  S
C1619      H1631   1.104       .  S
C1619      H1632   1.110       .  S
C1633      C1634   1.398       .  A
C1633      C1638   1.404       .  A
C1633      H1643   1.084       .  S
C1634      C1639   1.476   1_565  S
C1634      C1635   1.406       .  A
C1635      C1636   1.401       .  A
C1635      C1640   1.507       .  S
C1636      C1637   1.410       .  A
C1636      H1641   1.083       .  S
C1637      C1638   1.423       .  A
C1638      C1642   1.509       .  S
C1639      C1644   1.408       .  A
C1639      C1648   1.399       .  A
C1640      H1656   1.110   1_565  S
C1640      H1657   1.110       .  S
C1640      H1658   1.111       .  S
C1642      H1653   1.111       .  S
C1642      H1654   1.110       .  S
C1642      H1655   1.111       .  S
C1644      C1645   1.404       .  A
C1644      C1649   1.506       .  S
C1645      C1646   1.407       .  A
C1645      H1650   1.084       .  S
C1646      C1647   1.419       .  A
C1647      C1648   1.400       .  A
C1647      C1651   1.510       .  S
C1648      H1652   1.085       .  S
C1649      H1659   1.111       .  S
C1649      H1660   1.110       .  S
C1649      H1661   1.110       .  S
C1651      H1662   1.111       .  S
C1651      H1663   1.103       .  S
C1651      H1664   1.110       .  S
C1665      C1666   1.400       .  A
C1665      C1670   1.402       .  A
C1665      H1675   1.085       .  S
C1666      C1671   1.481       .  S
C1666      C1667   1.409       .  A
C1667      C1668   1.403       .  A
C1667      C1672   1.507       .  S
C1668      C1669   1.408       .  A
C1668      H1673   1.084       .  S
C1669      C1670   1.423       .  A
C1670      C1674   1.511       .  S
C1671      C1676   1.409       .  A
C1671      C1680   1.399       .  A
C1672      H1688   1.109       .  S
C1672      H1689   1.110       .  S
C1672      H1690   1.111       .  S
C1674      H1685   1.110       .  S
C1674      H1686   1.110       .  S
C1674      H1687   1.102       .  S
C1676      C1677   1.403       .  A
C1676      C1681   1.507       .  S
C1677      C1678   1.407       .  A
C1677      H1682   1.084       .  S
C1678      C1679   1.423       .  A
C1679      C1680   1.403       .  A
C1679      C1683   1.507       .  S
C1680      H1684   1.085       .  S
C1681      H1691   1.111       .  S
C1681      H1692   1.109       .  S
C1681      H1693   1.110       .  S
C1683      H1694   1.111       .  S
C1683      H1695   1.098       .  S
C1683      H1696   1.110       .  S
C1697      C1698   1.401       .  A
C1697      C1702   1.407       .  A
C1697      H1707   1.084       .  S
C1698      C1703   1.490       .  S
C1698      C1699   1.411       .  A
C1699      C1700   1.408       .  A
C1699      C1704   1.506       .  S
C1700      C1701   1.407       .  A
C1700      H1705   1.084       .  S
C1701      C1702   1.421       .  A
C1702      C1706   1.507       .  S
C1703      C1708   1.411       .  A
C1703      C1712   1.403       .  A
C1704      H1720   1.110       .  S
C1704      H1721   1.110       .  S
C1704      H1722   1.111       .  S
C1706      H1717   1.110       .  S
C1706      H1718   1.111       .  S
C1706      H1719   1.104       .  S
C1708      C1709   1.405       .  A
C1708      C1713   1.506       .  S
C1709      C1710   1.405       .  A
C1709      H1714   1.084       .  S
C1710      C1711   1.419       .  A
C1711      C1712   1.408       .  A
C1711      C1715   1.508       .  S
C1712      H1716   1.085       .  S
C1713      H1723   1.111       .  S
C1713      H1724   1.110       .  S
C1713      H1725   1.110       .  S
C1715      H1726   1.111       .  S
C1715      H1727   1.107       .  S
C1715      H1728   1.110       .  S
C1729      C1730   1.400       .  A
C1729      C1734   1.401       .  A
C1729      H1739   1.085       .  S
C1730      C1735   1.478   1_455  S
C1730      C1731   1.410       .  A
C1731      C1732   1.404       .  A
C1731      C1736   1.506       .  S
C1732      C1733   1.403       .  A
C1732      H1737   1.084       .  S
C1733      C1734   1.417       .  A
C1734      C1738   1.509       .  S
C1735      C1740   1.410       .  A
C1735      C1744   1.401       .  A
C1736      H1752   1.110       .  S
C1736      H1753   1.111       .  S
C1736      H1754   1.111       .  S
C1738      H1749   1.110       .  S
C1738      H1750   1.111       .  S
C1738      H1751   1.106       .  S
C1740      C1741   1.404       .  A
C1740      C1745   1.505       .  S
C1741      C1742   1.403       .  A
C1741      H1746   1.084       .  S
C1742      C1743   1.415       .  A
C1743      C1744   1.400       .  A
C1743      C1747   1.509       .  S
C1744      H1748   1.085       .  S
C1745      H1755   1.111       .  S
C1745      H1756   1.110       .  S
C1745      H1757   1.110       .  S
C1747      H1758   1.111       .  S
C1747      H1759   1.106       .  S
C1747      H1760   1.110       .  S
C1761      C1762   1.398       .  A
C1761      C1766   1.402       .  A
C1761      H1771   1.085       .  S
C1762      C1767   1.476       .  S
C1762      C1763   1.407       .  A
C1763      C1764   1.401       .  A
C1763      C1768   1.507       .  S
C1764      C1765   1.410       .  A
C1764      H1769   1.083       .  S
C1765      C1766   1.423       .  A
C1766      C1770   1.508       .  S
C1767      C1772   1.409       .  A
C1767      C1776   1.400       .  A
C1768      H1784   1.110       .  S
C1768      H1785   1.110       .  S
C1768      H1786   1.111       .  S
C1770      H1781   1.111       .  S
C1770      H1782   1.110       .  S
C1770      H1783   1.110       .  S
C1772      C1773   1.401       .  A
C1772      C1777   1.507       .  S
C1773      C1774   1.407       .  A
C1773      H1778   1.084       .  S
C1774      C1775   1.417       .  A
C1775      C1776   1.403       .  A
C1775      C1779   1.507       .  S
C1776      H1780   1.083       .  S
C1777      H1787   1.111       .  S
C1777      H1788   1.110       .  S
C1777      H1789   1.110       .  S
C1779      H1790   1.111       .  S
C1779      H1791   1.109       .  S
C1779      H1792   1.110       .  S
C1793      C1794   1.401       .  A
C1793      C1798   1.404       .  A
C1793      H1803   1.085       .  S
C1794      C1799   1.481       .  S
C1794      C1795   1.409       .  A
C1795      C1796   1.402       .  A
C1795      C1800   1.507       .  S
C1796      C1797   1.405       .  A
C1796      H1801   1.083       .  S
C1797      C1798   1.420       .  A
C1798      C1802   1.509       .  S
C1799      C1804   1.410       .  A
C1799      C1808   1.402       .  A
C1800      H1816   1.109       .  S
C1800      H1817   1.110       .  S
C1800      H1818   1.111       .  S
C1802      H1813   1.110       .  S
C1802      H1814   1.111       .  S
C1802      H1815   1.105       .  S
C1804      C1805   1.401       .  A
C1804      C1809   1.507       .  S
C1805      C1806   1.405       .  A
C1805      H1810   1.083       .  S
C1806      C1807   1.416       .  A
C1807      C1808   1.405       .  A
C1807      C1811   1.508       .  S
C1808      H1812   1.084       .  S
C1809      H1819   1.111       .  S
C1809      H1820   1.109       .  S
C1809      H1821   1.111       .  S
C1811      H1822   1.111       .  S
C1811      H1823   1.111       .  S
C1811      H1824   1.110       .  S
C1825      C1826   1.403       .  A
C1825      C1830   1.409       .  A
C1825      H1835   1.083       .  S
C1826      C1831   1.485   1_655  S
C1826      C1827   1.411       .  A
C1827      C1828   1.403       .  A
C1827      C1832   1.507       .  S
C1828      C1829   1.404       .  A
C1828      H1833   1.084       .  S
C1829      C1830   1.416       .  A
C1830      C1834   1.507       .  S
C1831      C1836   1.411       .  A
C1831      C1840   1.399       .  A
C1832      H1848   1.110   1_655  S
C1832      H1849   1.110   1_655  S
C1832      H1850   1.111       .  S
C1834      H1845   1.111       .  S
C1834      H1846   1.109       .  S
C1834      H1847   1.111       .  S
C1836      C1837   1.408       .  A
C1836      C1841   1.505       .  S
C1837      C1838   1.407       .  A
C1837      H1842   1.084       .  S
C1838      C1839   1.419       .  A
C1839      C1840   1.402       .  A
C1839      C1843   1.509       .  S
C1840      H1844   1.085       .  S
C1841      H1851   1.111       .  S
C1841      H1852   1.110       .  S
C1841      H1853   1.110       .  S
C1843      H1854   1.110       .  S
C1843      H1855   1.105       .  S
C1843      H1856   1.111       .  S
C1857      C1858   1.400       .  A
C1857      C1862   1.400       .  A
C1857      H1867   1.085       .  S
C1858      C1863   1.479   1_565  S
C1858      C1859   1.410       .  A
C1859      C1860   1.404       .  A
C1859      C1864   1.505       .  S
C1860      C1861   1.403       .  A
C1860      H1865   1.084       .  S
C1861      C1862   1.416       .  A
C1862      C1866   1.509       .  S
C1863      C1868   1.409       .  A
C1863      C1872   1.401       .  A
C1864      H1880   1.110       .  S
C1864      H1881   1.110       .  S
C1864      H1882   1.111       .  S
C1866      H1877   1.111       .  S
C1866      H1878   1.110       .  S
C1866      H1879   1.106       .  S
C1868      C1869   1.400       .  A
C1868      C1873   1.508       .  S
C1869      C1870   1.407       .  A
C1869      H1874   1.084       .  S
C1870      C1871   1.419       .  A
C1871      C1872   1.406       .  A
C1871      C1875   1.508       .  S
C1872      H1876   1.085       .  S
C1873      H1883   1.111       .  S
C1873      H1884   1.110       .  S
C1873      H1885   1.110       .  S
C1875      H1886   1.110       .  S
C1875      H1887   1.106       .  S
C1875      H1888   1.111       .  S
C1889      C1890   1.400       .  A
C1889      C1894   1.403       .  A
C1889      H1899   1.084       .  S
C1890      C1895   1.479       .  S
C1890      C1891   1.410       .  A
C1891      C1892   1.403       .  A
C1891      C1896   1.507       .  S
C1892      C1893   1.406       .  A
C1892      H1897   1.084       .  S
C1893      C1894   1.416       .  A
C1894      C1898   1.508       .  S
C1895      C1900   1.409       .  A
C1895      C1904   1.399       .  A
C1896      H1912   1.110       .  S
C1896      H1913   1.110       .  S
C1896      H1914   1.111       .  S
C1898      H1909   1.109       .  S
C1898      H1910   1.111       .  S
C1898      H1911   1.111       .  S
C1900      C1901   1.404       .  A
C1900      C1905   1.506       .  S
C1901      C1902   1.407       .  A
C1901      H1906   1.084       .  S
C1902      C1903   1.420       .  A
C1903      C1904   1.401       .  A
C1903      C1907   1.509       .  S
C1904      H1908   1.085       .  S
C1905      H1915   1.111       .  S
C1905      H1916   1.110       .  S
C1905      H1917   1.110       .  S
C1907      H1918   1.110       .  S
C1907      H1919   1.105       .  S
C1907      H1920   1.110       .  S
C1921      C1922   1.398       .  A
C1921      C1926   1.400       .  A
C1921      H1931   1.085       .  S
C1922      C1927   1.477       .  S
C1922      C1923   1.409       .  A
C1923      C1924   1.404       .  A
C1923      C1928   1.506       .  S
C1924      C1925   1.405       .  A
C1924      H1929   1.084       .  S
C1925      C1926   1.418       .  A
C1926      C1930   1.507       .  S
C1927      C1932   1.407       .  A
C1927      C1936   1.398       .  A
C1928      H1944   1.110       .  S
C1928      H1945   1.110       .  S
C1928      H1946   1.111       .  S
C1930      H1941   1.110       .  S
C1930      H1942   1.111       .  S
C1930      H1943   1.104       .  S
C1932      C1933   1.401       .  A
C1932      C1937   1.507       .  S
C1933      C1934   1.409       .  A
C1933      H1938   1.084       .  S
C1934      C1935   1.425       .  A
C1935      C1936   1.405       .  A
C1935      C1939   1.509       .  S
C1936      H1940   1.084       .  S
C1937      H1947   1.111       .  S
C1937      H1948   1.110       .  S
C1937      H1949   1.110       .  S
C1939      H1950   1.111       .  S
C1939      H1951   1.110       .  S
C1939      H1952   1.110       .  S
C1953      C1954   1.400       .  A
C1953      C1958   1.401       .  A
C1953      H1963   1.084       .  S
C1954      C1959   1.480       .  S
C1954      C1955   1.411       .  A
C1955      C1956   1.404       .  A
C1955      C1960   1.506       .  S
C1956      C1957   1.403       .  A
C1956      H1961   1.084       .  S
C1957      C1958   1.417       .  A
C1958      C1962   1.510       .  S
C1959      C1964   1.409       .  A
C1959      C1968   1.398       .  A
C1960      H1976   1.110       .  S
C1960      H1977   1.110       .  S
C1960      H1978   1.111       .  S
C1962      H1973   1.110       .  S
C1962      H1974   1.111       .  S
C1962      H1975   1.107       .  S
C1964      C1965   1.403       .  A
C1964      C1969   1.507       .  S
C1965      C1966   1.408       .  A
C1965      H1970   1.084       .  S
C1966      C1967   1.423       .  A
C1967      C1968   1.404       .  A
C1967      C1971   1.508       .  S
C1968      H1972   1.085       .  S
C1969      H1979   1.111       .  S
C1969      H1980   1.110       .  S
C1969      H1981   1.110       .  S
C1971      H1982   1.111       .  S
C1971      H1983   1.109       .  S
C1971      H1984   1.110       .  S
C1985      C1986   1.401       .  A
C1985      C1990   1.401       .  A
C1985      H1995   1.084       .  S
C1986      C1991   1.480   1_556  S
C1986      C1987   1.411       .  A
C1987      C1988   1.403       .  A
C1987      C1992   1.507       .  S
C1988      C1989   1.405       .  A
C1988      H1993   1.084       .  S
C1989      C1990   1.418       .  A
C1990      C1994   1.509       .  S
C1991      C1996   1.412       .  A
C1991      C2000   1.399       .  A
C1992      H2008   1.109       .  S
C1992      H2009   1.110       .  S
C1992      H2010   1.111       .  S
C1994      H2005   1.109       .  S
C1994      H2006   1.111       .  S
C1994      H2007   1.110       .  S
C1996      C1997   1.403       .  A
C1996      C2001   1.507       .  S
C1997      C1998   1.406       .  A
C1997      H2002   1.084       .  S
C1998      C1999   1.419       .  A
C1999      C2000   1.401       .  A
C1999      C2003   1.509       .  S
C2000      H2004   1.085       .  S
C2001      H2011   1.111       .  S
C2001      H2012   1.109       .  S
C2001      H2013   1.110       .  S
C2003      H2014   1.111       .  S
C2003      H2015   1.110       .  S
C2003      H2016   1.110       .  S
C2017      C2018   1.400       .  A
C2017      C2022   1.406       .  A
C2017      H2027   1.084       .  S
C2018      C2023   1.485   1_556  S
C2018      C2019   1.410       .  A
C2019      C2020   1.405       .  A
C2019      C2024   1.507       .  S
C2020      C2021   1.407       .  A
C2020      H2025   1.084       .  S
C2021      C2022   1.422       .  A
C2022      C2026   1.508       .  S
C2023      C2028   1.411       .  A
C2023      C2032   1.401       .  A
C2024      H2040   1.109       .  S
C2024      H2041   1.110       .  S
C2024      H2042   1.111       .  S
C2026      H2037   1.110       .  S
C2026      H2038   1.111       .  S
C2026      H2039   1.111       .  S
C2028      C2029   1.407       .  A
C2028      C2033   1.506       .  S
C2029      C2030   1.407       .  A
C2029      H2034   1.084       .  S
C2030      C2031   1.418       .  A
C2031      C2032   1.402       .  A
C2031      C2035   1.509       .  S
C2032      H2036   1.085       .  S
C2033      H2043   1.111       .  S
C2033      H2044   1.110       .  S
C2033      H2045   1.110       .  S
C2035      H2046   1.111       .  S
C2035      H2047   1.104       .  S
C2035      H2048   1.110       .  S
C2049      C2050   1.401       .  A
C2049      C2054   1.404       .  A
C2049      H2059   1.084       .  S
C2050      C2055   1.480       .  S
C2050      C2051   1.409       .  A
C2051      C2052   1.404       .  A
C2051      C2056   1.506       .  S
C2052      C2053   1.406       .  A
C2052      H2057   1.083       .  S
C2053      C2054   1.419       .  A
C2054      C2058   1.509       .  S
C2055      C2060   1.409       .  A
C2055      C2064   1.399       .  A
C2056      H2072   1.110       .  S
C2056      H2073   1.110       .  S
C2056      H2074   1.111       .  S
C2058      H2069   1.109       .  S
C2058      H2070   1.111       .  S
C2058      H2071   1.110       .  S
C2060      C2061   1.404       .  A
C2060      C2065   1.506       .  S
C2061      C2062   1.406       .  A
C2061      H2066   1.084       .  S
C2062      C2063   1.422       .  A
C2063      C2064   1.402       .  A
C2063      C2067   1.508       .  S
C2064      H2068   1.084       .  S
C2065      H2075   1.111       .  S
C2065      H2076   1.110       .  S
C2065      H2077   1.110       .  S
C2067      H2078   1.111       .  S
C2067      H2079   1.098       .  S
C2067      H2080   1.110       .  S
C2081      C2082   1.402       .  A
C2081      C2086   1.406       .  A
C2081      H2091   1.085       .  S
C2082      C2087   1.483       .  S
C2082      C2083   1.410       .  A
C2083      C2084   1.402       .  A
C2083      C2088   1.507       .  S
C2084      C2085   1.405       .  A
C2084      H2089   1.085       .  S
C2085      C2086   1.419       .  A
C2086      C2090   1.508       .  S
C2087      C2092   1.409       .  A
C2087      C2096   1.401       .  A
C2088      H2104   1.110       .  S
C2088      H2105   1.111       .  S
C2088      H2106   1.111       .  S
C2090      H2101   1.110       .  S
C2090      H2102   1.111       .  S
C2090      H2103   1.106       .  S
C2092      C2093   1.403       .  A
C2092      C2097   1.506       .  S
C2093      C2094   1.406       .  A
C2093      H2098   1.084       .  S
C2094      C2095   1.419       .  A
C2095      C2096   1.405       .  A
C2095      C2099   1.508       .  S
C2096      H2100   1.085       .  S
C2097      H2107   1.111       .  S
C2097      H2108   1.110       .  S
C2097      H2109   1.110       .  S
C2099      H2110   1.111       .  S
C2099      H2111   1.104       .  S
C2099      H2112   1.110       .  S
C2113      C2114   1.401       .  A
C2113      C2118   1.404       .  A
C2113      H2123   1.085       .  S
C2114      C2119   1.478       .  S
C2114      C2115   1.410       .  A
C2115      C2116   1.401       .  A
C2115      C2120   1.507       .  S
C2116      C2117   1.403       .  A
C2116      H2121   1.085       .  S
C2117      C2118   1.416       .  A
C2118      C2122   1.508       .  S
C2119      C2124   1.409       .  A
C2119      C2128   1.398       .  A
C2120      H2136   1.110       .  S
C2120      H2137   1.109       .  S
C2120      H2138   1.111       .  S
C2122      H2133   1.111       .  S
C2122      H2134   1.110       .  S
C2122      H2135   1.107       .  S
C2124      C2125   1.403       .  A
C2124      C2129   1.507       .  S
C2125      C2126   1.407       .  A
C2125      H2130   1.084       .  S
C2126      C2127   1.421       .  A
C2127      C2128   1.403       .  A
C2127      C2131   1.508       .  S
C2128      H2132   1.084       .  S
C2129      H2139   1.111       .  S
C2129      H2140   1.110       .  S
C2129      H2141   1.109       .  S
C2131      H2142   1.109       .  S
C2131      H2143   1.108       .  S
C2131      H2144   1.111       .  S
C2145      C2146   1.400       .  A
C2145      C2150   1.406       .  A
C2145      H2155   1.084       .  S
C2146      C2151   1.480       .  S
C2146      C2147   1.406       .  A
C2147      C2148   1.401       .  A
C2147      C2152   1.507       .  S
C2148      C2149   1.411       .  A
C2148      H2153   1.083       .  S
C2149      C2150   1.423       .  A
C2150      C2154   1.508       .  S
C2151      C2156   1.407       .  A
C2151      C2160   1.399       .  A
C2152      H2168   1.110       .  S
C2152      H2169   1.110       .  S
C2152      H2170   1.111       .  S
C2154      H2165   1.110       .  S
C2154      H2166   1.111       .  S
C2154      H2167   1.108       .  S
C2156      C2157   1.404       .  A
C2156      C2161   1.506       .  S
C2157      C2158   1.410       .  A
C2157      H2162   1.084       .  S
C2158      C2159   1.423       .  A
C2159      C2160   1.404       .  A
C2159      C2163   1.509       .  S
C2160      H2164   1.084       .  S
C2161      H2171   1.111       .  S
C2161      H2172   1.110       .  S
C2161      H2173   1.110       .  S
C2163      H2174   1.111       .  S
C2163      H2175   1.109       .  S
C2163      H2176   1.110       .  S
C2177      C2178   1.398       .  A
C2177      C2182   1.400       .  A
C2177      H2187   1.084       .  S
C2178      C2183   1.475       .  S
C2178      C2179   1.408       .  A
C2179      C2180   1.403       .  A
C2179      C2184   1.506       .  S
C2180      C2181   1.406       .  A
C2180      H2185   1.083       .  S
C2181      C2182   1.420       .  A
C2182      C2186   1.510       .  S
C2183      C2188   1.409       .  A
C2183      C2192   1.398       .  A
C2184      H2200   1.110       .  S
C2184      H2201   1.110       .  S
C2184      H2202   1.111       .  S
C2186      H2197   1.110       .  S
C2186      H2198   1.111       .  S
C2186      H2199   1.111       .  S
C2188      C2189   1.402       .  A
C2188      C2193   1.506       .  S
C2189      C2190   1.404       .  A
C2189      H2194   1.084       .  S
C2190      C2191   1.420       .  A
C2191      C2192   1.400       .  A
C2191      C2195   1.511       .  S
C2192      H2196   1.085       .  S
C2193      H2203   1.111       .  S
C2193      H2204   1.110       .  S
C2193      H2205   1.110       .  S
C2195      H2206   1.111       .  S
C2195      H2207   1.104       .  S
C2195      H2208   1.110       .  S
C2209      C2210   1.395       .  A
C2209      C2214   1.400       .  A
C2209      H2219   1.084       .  S
C2210      C2215   1.473       .  S
C2210      C2211   1.407       .  A
C2211      C2212   1.403       .  A
C2211      C2216   1.507       .  S
C2212      C2213   1.410       .  A
C2212      H2217   1.083       .  S
C2213      C2214   1.425       .  A
C2214      C2218   1.510       .  S
C2215      C2220   1.409       .  A
C2215      C2224   1.399       .  A
C2216      H2232   1.110       .  S
C2216      H2233   1.110       .  S
C2216      H2234   1.111       .  S
C2218      H2229   1.111       .  S
C2218      H2230   1.110       .  S
C2218      H2231   1.110       .  S
C2220      C2221   1.400       .  A
C2220      C2225   1.507       .  S
C2221      C2222   1.405       .  A
C2221      H2226   1.084       .  S
C2222      C2223   1.417       .  A
C2223      C2224   1.400       .  A
C2223      C2227   1.509       .  S
C2224      H2228   1.084       .  S
C2225      H2235   1.111       .  S
C2225      H2236   1.110       .  S
C2225      H2237   1.110       .  S
C2227      H2238   1.111       .  S
C2227      H2239   1.107       .  S
C2227      H2240   1.110       .  S
C2241      C2242   1.402       .  A
C2241      C2246   1.408       .  A
C2241      H2251   1.083       .  S
C2242      C2247   1.484       .  S
C2242      C2243   1.409       .  A
C2243      C2244   1.402       .  A
C2243      C2248   1.507       .  S
C2244      C2245   1.408       .  A
C2244      H2249   1.085       .  S
C2245      C2246   1.420       .  A
C2246      C2250   1.507       .  S
C2247      C2252   1.411       .  A
C2247      C2256   1.402       .  A
C2248      H2264   1.110       .  S
C2248      H2265   1.110       .  S
C2248      H2266   1.111       .  S
C2250      H2261   1.110       .  S
C2250      H2262   1.111       .  S
C2250      H2263   1.111       .  S
C2252      C2253   1.404       .  A
C2252      C2257   1.507       .  S
C2253      C2254   1.404       .  A
C2253      H2258   1.083       .  S
C2254      C2255   1.418       .  A
C2255      C2256   1.406       .  A
C2255      C2259   1.507       .  S
C2256      H2260   1.084       .  S
C2257      H2267   1.111       .  S
C2257      H2268   1.110       .  S
C2257      H2269   1.111       .  S
C2259      H2270   1.111       .  S
C2259      H2271   1.106       .  S
C2259      H2272   1.110       .  S
C2273      C2274   1.400       .  A
C2273      C2278   1.401       .  A
C2273      H2283   1.085       .  S
C2274      C2279   1.475       .  S
C2274      C2275   1.409       .  A
C2275      C2276   1.401       .  A
C2275      C2280   1.507       .  S
C2276      C2277   1.403       .  A
C2276      H2281   1.084       .  S
C2277      C2278   1.419       .  A
C2278      C2282   1.510       .  S
C2279      C2284   1.408       .  A
C2279      C2288   1.400       .  A
C2280      H2296   1.110       .  S
C2280      H2297   1.111       .  S
C2280      H2298   1.111       .  S
C2282      H2293   1.110       .  S
C2282      H2294   1.110       .  S
C2282      H2295   1.106       .  S
C2284      C2285   1.399       .  A
C2284      C2289   1.507       .  S
C2285      C2286   1.405       .  A
C2285      H2290   1.084       .  S
C2286      C2287   1.420       .  A
C2287      C2288   1.402       .  A
C2287      C2291   1.510       .  S
C2288      H2292   1.085       .  S
C2289      H2299   1.111       .  S
C2289      H2300   1.110       .  S
C2289      H2301   1.111       .  S
C2291      H2302   1.110       .  S
C2291      H2303   1.106       .  S
C2291      H2304   1.111       .  S
C2305      C2306   1.399       .  A
C2305      C2310   1.402       .  A
C2305      H2315   1.085       .  S
C2306      C2311   1.478       .  S
C2306      C2307   1.409       .  A
C2307      C2308   1.404       .  A
C2307      C2312   1.506       .  S
C2308      C2309   1.406       .  A
C2308      H2313   1.084       .  S
C2309      C2310   1.419       .  A
C2310      C2314   1.510       .  S
C2311      C2316   1.410       .  A
C2311      C2320   1.398       .  A
C2312      H2328   1.110       .  S
C2312      H2329   1.109       .  S
C2312      H2330   1.111       .  S
C2314      H2325   1.110       .  S
C2314      H2326   1.111       .  S
C2314      H2327   1.105       .  S
C2316      C2317   1.405       .  A
C2316      C2321   1.505       .  S
C2317      C2318   1.404       .  A
C2317      H2322   1.084       .  S
C2318      C2319   1.419       .  A
C2319      C2320   1.400       .  A
C2319      C2323   1.510       .  S
C2320      H2324   1.085       .  S
C2321      H2331   1.111       .  S
C2321      H2332   1.110       .  S
C2321      H2333   1.109       .  S
C2323      H2334   1.111       .  S
C2323      H2335   1.103       .  S
C2323      H2336   1.110       .  S
C2337      C2338   1.403       .  A
C2337      C2342   1.408       .  A
C2337      H2347   1.084       .  S
C2338      C2343   1.479       .  S
C2338      C2339   1.409       .  A
C2339      C2340   1.399       .  A
C2339      C2344   1.508       .  S
C2340      C2341   1.405       .  A
C2340      H2345   1.084       .  S
C2341      C2342   1.417       .  A
C2342      C2346   1.507       .  S
C2343      C2348   1.410       .  A
C2343      C2352   1.399       .  A
C2344      H2360   1.110       .  S
C2344      H2361   1.110       .  S
C2344      H2362   1.111       .  S
C2346      H2357   1.111       .  S
C2346      H2358   1.109       .  S
C2346      H2359   1.111       .  S
C2348      C2349   1.406       .  A
C2348      C2353   1.506       .  S
C2349      C2350   1.405       .  A
C2349      H2354   1.084       .  S
C2350      C2351   1.418       .  A
C2351      C2352   1.400       .  A
C2351      C2355   1.509       .  S
C2352      H2356   1.085       .  S
C2353      H2363   1.111       .  S
C2353      H2364   1.110       .  S
C2353      H2365   1.110       .  S
C2355      H2366   1.110       .  S
C2355      H2367   1.105       .  S
C2355      H2368   1.111       .  S
C2369      C2370   1.400       .  A
C2369      C2374   1.408       .  A
C2369      H2379   1.084       .  S
C2370      C2375   1.483       .  S
C2370      C2371   1.408       .  A
C2371      C2372   1.402       .  A
C2371      C2376   1.507       .  S
C2372      C2373   1.410       .  A
C2372      H2377   1.083       .  S
C2373      C2374   1.424       .  A
C2374      C2378   1.508       .  S
C2375      C2380   1.409       .  A
C2375      C2384   1.400       .  A
C2376      H2392   1.110       .  S
C2376      H2393   1.110       .  S
C2376      H2394   1.111       .  S
C2378      H2389   1.110       .  S
C2378      H2390   1.111       .  S
C2378      H2391   1.110       .  S
C2380      C2381   1.404       .  A
C2380      C2385   1.507       .  S
C2381      C2382   1.408       .  A
C2381      H2386   1.082       .  S
C2382      C2383   1.422       .  A
C2383      C2384   1.406       .  A
C2383      C2387   1.509       .  S
C2384      H2388   1.083       .  S
C2385      H2395   1.110       .  S
C2385      H2396   1.110       .  S
C2385      H2397   1.111       .  S
C2387      H2398   1.111       .  S
C2387      H2399   1.110       .  S
C2387      H2400   1.111       .  S
C2401      C2402   1.399       .  A
C2401      C2406   1.401       .  A
C2401      H2411   1.085       .  S
C2402      C2407   1.479   1_556  S
C2402      C2403   1.409       .  A
C2403      C2404   1.405       .  A
C2403      C2408   1.505       .  S
C2404      C2405   1.405       .  A
C2404      H2409   1.084       .  S
C2405      C2406   1.421       .  A
C2406      C2410   1.510       .  S
C2407      C2412   1.410       .  A
C2407      C2416   1.399       .  A
C2408      H2424   1.110       .  S
C2408      H2425   1.110       .  S
C2408      H2426   1.111       .  S
C2410      H2421   1.110       .  S
C2410      H2422   1.111       .  S
C2410      H2423   1.104       .  S
C2412      C2413   1.405       .  A
C2412      C2417   1.506       .  S
C2413      C2414   1.405       .  A
C2413      H2418   1.084       .  S
C2414      C2415   1.417       .  A
C2415      C2416   1.403       .  A
C2415      C2419   1.508       .  S
C2416      H2420   1.084       .  S
C2417      H2427   1.111       .  S
C2417      H2428   1.110       .  S
C2417      H2429   1.110       .  S
C2419      H2430   1.111       .  S
C2419      H2431   1.110       .  S
C2419      H2432   1.111       .  S
C2433      C2434   1.400       .  A
C2433      C2438   1.401       .  A
C2433      H2443   1.085       .  S
C2434      C2439   1.481       .  S
C2434      C2435   1.410       .  A
C2435      C2436   1.404       .  A
C2435      C2440   1.506       .  S
C2436      C2437   1.406       .  A
C2436      H2441   1.085       .  S
C2437      C2438   1.419       .  A
C2438      C2442   1.510       .  S
C2439      C2444   1.408       .  A
C2439      C2448   1.399       .  A
C2440      H2456   1.110       .  S
C2440      H2457   1.110       .  S
C2440      H2458   1.111       .  S
C2442      H2453   1.111       .  S
C2442      H2454   1.110       .  S
C2442      H2455   1.105       .  S
C2444      C2445   1.403       .  A
C2444      C2449   1.507       .  S
C2445      C2446   1.408       .  A
C2445      H2450   1.084       .  S
C2446      C2447   1.425       .  A
C2447      C2448   1.404       .  A
C2447      C2451   1.510       .  S
C2448      H2452   1.084       .  S
C2449      H2459   1.111       .  S
C2449      H2460   1.110       .  S
C2449      H2461   1.110       .  S
C2451      H2462   1.111       .  S
C2451      H2463   1.099       .  S
C2451      H2464   1.110       .  S
C2465      C2466   1.400       .  A
C2465      C2470   1.403       .  A
C2465      H2475   1.085       .  S
C2466      C2471   1.476   1_565  S
C2466      C2467   1.411       .  A
C2467      C2468   1.402       .  A
C2467      C2472   1.508       .  S
C2468      C2469   1.405       .  A
C2468      H2473   1.084       .  S
C2469      C2470   1.415       .  A
C2470      C2474   1.507       .  S
C2471      C2476   1.409       .  A
C2471      C2480   1.398       .  A
C2472      H2488   1.110   1_565  S
C2472      H2489   1.108   1_565  S
C2472      H2490   1.111       .  S
C2474      H2485   1.111       .  S
C2474      H2486   1.109       .  S
C2474      H2487   1.109       .  S
C2476      C2477   1.404       .  A
C2476      C2481   1.506       .  S
C2477      C2478   1.406       .  A
C2477      H2482   1.084       .  S
C2478      C2479   1.420       .  A
C2479      C2480   1.401       .  A
C2479      C2483   1.508       .  S
C2480      H2484   1.085       .  S
C2481      H2491   1.111       .  S
C2481      H2492   1.110       .  S
C2481      H2493   1.108       .  S
C2483      H2494   1.110       .  S
C2483      H2495   1.110       .  S
C2483      H2496   1.111       .  S
C2497      C2498   1.399       .  A
C2497      C2502   1.403       .  A
C2497      H2507   1.084       .  S
C2498      C2503   1.482   1_556  S
C2498      C2499   1.409       .  A
C2499      C2500   1.405       .  A
C2499      C2504   1.506       .  S
C2500      C2501   1.409       .  A
C2500      H2505   1.084       .  S
C2501      C2502   1.422       .  A
C2502      C2506   1.509       .  S
C2503      C2508   1.411       .  A
C2503      C2512   1.401       .  A
C2504      H2520   1.110       .  S
C2504      H2521   1.110       .  S
C2504      H2522   1.111       .  S
C2506      H2517   1.110       .  S
C2506      H2518   1.111       .  S
C2506      H2519   1.111       .  S
C2508      C2509   1.405       .  A
C2508      C2513   1.506       .  S
C2509      C2510   1.404       .  A
C2509      H2514   1.084       .  S
C2510      C2511   1.416       .  A
C2511      C2512   1.402       .  A
C2511      C2515   1.509       .  S
C2512      H2516   1.085       .  S
C2513      H2523   1.111       .  S
C2513      H2524   1.110       .  S
C2513      H2525   1.110       .  S
C2515      H2526   1.111       .  S
C2515      H2527   1.106       .  S
C2515      H2528   1.110       .  S
C2529      C2530   1.399       .  A
C2529      C2534   1.401       .  A
C2529      H2539   1.085       .  S
C2530      C2535   1.479       .  S
C2530      C2531   1.411       .  A
C2531      C2532   1.404       .  A
C2531      C2536   1.506       .  S
C2532      C2533   1.404       .  A
C2532      H2537   1.085       .  S
C2533      C2534   1.419       .  A
C2534      C2538   1.509       .  S
C2535      C2540   1.409       .  A
C2535      C2544   1.398       .  A
C2536      H2552   1.110       .  S
C2536      H2553   1.110       .  S
C2536      H2554   1.111       .  S
C2538      H2549   1.110       .  S
C2538      H2550   1.111       .  S
C2538      H2551   1.105       .  S
C2540      C2541   1.403       .  A
C2540      C2545   1.506       .  S
C2541      C2542   1.407       .  A
C2541      H2546   1.084       .  S
C2542      C2543   1.421       .  A
C2543      C2544   1.402       .  A
C2543      C2547   1.508       .  S
C2544      H2548   1.085       .  S
C2545      H2555   1.111       .  S
C2545      H2556   1.110       .  S
C2545      H2557   1.110       .  S
C2547      H2558   1.111       .  S
C2547      H2559   1.109       .  S
C2547      H2560   1.110       .  S
C2561      C2562   1.399       .  A
C2561      C2566   1.405       .  A
C2561      H2571   1.084       .  S
C2562      C2567   1.481       .  S
C2562      C2563   1.408       .  A
C2563      C2564   1.403       .  A
C2563      C2568   1.506       .  S
C2564      C2565   1.408       .  A
C2564      H2569   1.084       .  S
C2565      C2566   1.423       .  A
C2566      C2570   1.510       .  S
C2567      C2572   1.407       .  A
C2567      C2576   1.398       .  A
C2568      H2584   1.110       .  S
C2568      H2585   1.110       .  S
C2568      H2586   1.111       .  S
C2570      H2581   1.110       .  S
C2570      H2582   1.111       .  S
C2570      H2583   1.109       .  S
C2572      C2573   1.404       .  A
C2572      C2577   1.507       .  S
C2573      C2574   1.411       .  A
C2573      H2578   1.084       .  S
C2574      C2575   1.425       .  A
C2575      C2576   1.405       .  A
C2575      C2579   1.509       .  S
C2576      H2580   1.085       .  S
C2577      H2587   1.111       .  S
C2577      H2588   1.110       .  S
C2577      H2589   1.110       .  S
C2579      H2590   1.111       .  S
C2579      H2591   1.110       .  S
C2579      H2592   1.110       .  S
C2593      C2594   1.397       .  A
C2593      C2598   1.403       .  A
C2593      H2603   1.084       .  S
C2594      C2599   1.479       .  S
C2594      C2595   1.407       .  A
C2595      C2596   1.404       .  A
C2595      C2600   1.507       .  S
C2596      C2597   1.411       .  A
C2596      H2601   1.083       .  S
C2597      C2598   1.425       .  A
C2598      C2602   1.509       .  S
C2599      C2604   1.409       .  A
C2599      C2608   1.401       .  A
C2600      H2616   1.110       .  S
C2600      H2617   1.109       .  S
C2600      H2618   1.111       .  S
C2602      H2613   1.109       .  S
C2602      H2614   1.111       .  S
C2602      H2615   1.110       .  S
C2604      C2605   1.400       .  A
C2604      C2609   1.508       .  S
C2605      C2606   1.407       .  A
C2605      H2610   1.084       .  S
C2606      C2607   1.420       .  A
C2607      C2608   1.406       .  A
C2607      C2611   1.509       .  S
C2608      H2612   1.084       .  S
C2609      H2619   1.111       .  S
C2609      H2620   1.110       .  S
C2609      H2621   1.109       .  S
C2611      H2622   1.110       .  S
C2611      H2623   1.105       .  S
C2611      H2624   1.111       .  S
C2625      C2626   1.401       .  A
C2625      C2630   1.405       .  A
C2625      H2635   1.085       .  S
C2626      C2631   1.481   1_545  S
C2626      C2627   1.410       .  A
C2627      C2628   1.402       .  A
C2627      C2632   1.507       .  S
C2628      C2629   1.405       .  A
C2628      H2633   1.084       .  S
C2629      C2630   1.419       .  A
C2630      C2634   1.507       .  S
C2631      C2636   1.410       .  A
C2631      C2640   1.398       .  A
C2632      H2648   1.110       .  S
C2632      H2649   1.110       .  S
C2632      H2650   1.111       .  S
C2634      H2645   1.111       .  S
C2634      H2646   1.110       .  S
C2634      H2647   1.104       .  S
C2636      C2637   1.407       .  A
C2636      C2641   1.506       .  S
C2637      C2638   1.406       .  A
C2637      H2642   1.084       .  S
C2638      C2639   1.420       .  A
C2639      C2640   1.400       .  A
C2639      C2643   1.510       .  S
C2640      H2644   1.085       .  S
C2641      H2651   1.111       .  S
C2641      H2652   1.110       .  S
C2641      H2653   1.110       .  S
C2643      H2654   1.110       .  S
C2643      H2655   1.104       .  S
C2643      H2656   1.111       .  S
C2657      C2658   1.402       .  A
C2657      C2662   1.403       .  A
C2657      H2667   1.084       .  S
C2658      C2663   1.478       .  S
C2658      C2659   1.410       .  A
C2659      C2660   1.402       .  A
C2659      C2664   1.507       .  S
C2660      C2661   1.404       .  A
C2660      H2665   1.085       .  S
C2661      C2662   1.416       .  A
C2662      C2666   1.508       .  S
C2663      C2668   1.409       .  A
C2663      C2672   1.399       .  A
C2664      H2680   1.110       .  S
C2664      H2681   1.109       .  S
C2664      H2682   1.111       .  S
C2666      H2677   1.111       .  S
C2666      H2678   1.110       .  S
C2666      H2679   1.106       .  S
C2668      C2669   1.404       .  A
C2668      C2673   1.507       .  S
C2669      C2670   1.408       .  A
C2669      H2674   1.084       .  S
C2670      C2671   1.420       .  A
C2671      C2672   1.402       .  A
C2671      C2675   1.508       .  S
C2672      H2676   1.085       .  S
C2673      H2683   1.111       .  S
C2673      H2684   1.110       .  S
C2673      H2685   1.109       .  S
C2675      H2686   1.111       .  S
C2675      H2687   1.105       .  S
C2675      H2688   1.110       .  S
C2689      C2690   1.401       .  A
C2689      C2694   1.402       .  A
C2689      H2699   1.084       .  S
C2690      C2695   1.478       .  S
C2690      C2691   1.411       .  A
C2691      C2692   1.403       .  A
C2691      C2696   1.507       .  S
C2692      C2693   1.404       .  A
C2692      H2697   1.085       .  S
C2693      C2694   1.413       .  A
C2694      C2698   1.508       .  S
C2695      C2700   1.407       .  A
C2695      C2704   1.399       .  A
C2696      H2712   1.110       .  S
C2696      H2713   1.110       .  S
C2696      H2714   1.111       .  S
C2698      H2709   1.110       .  S
C2698      H2710   1.110       .  S
C2698      H2711   1.108       .  S
C2700      C2701   1.401       .  A
C2700      C2705   1.507       .  S
C2701      C2702   1.409       .  A
C2701      H2706   1.083       .  S
C2702      C2703   1.422       .  A
C2703      C2704   1.406       .  A
C2703      C2707   1.507       .  S
C2704      H2708   1.084       .  S
C2705      H2715   1.111       .  S
C2705      H2716   1.110       .  S
C2705      H2717   1.110       .  S
C2707      H2718   1.111       .  S
C2707      H2719   1.109       .  S
C2707      H2720   1.110       .  S
C2721      C2722   1.401       .  A
C2721      C2726   1.405       .  A
C2721      H2731   1.084       .  S
C2722      C2727   1.480       .  S
C2722      C2723   1.409       .  A
C2723      C2724   1.402       .  A
C2723      C2728   1.507       .  S
C2724      C2725   1.407       .  A
C2724      H2729   1.085       .  S
C2725      C2726   1.418       .  A
C2726      C2730   1.508       .  S
C2727      C2732   1.410       .  A
C2727      C2736   1.401       .  A
C2728      H2744   1.110       .  S
C2728      H2745   1.110       .  S
C2728      H2746   1.111       .  S
C2730      H2741   1.109       .  S
C2730      H2742   1.111       .  S
C2730      H2743   1.111       .  S
C2732      C2733   1.403       .  A
C2732      C2737   1.507       .  S
C2733      C2734   1.405       .  A
C2733      H2738   1.084       .  S
C2734      C2735   1.417       .  A
C2735      C2736   1.404       .  A
C2735      C2739   1.508       .  S
C2736      H2740   1.085       .  S
C2737      H2747   1.111       .  S
C2737      H2748   1.110       .  S
C2737      H2749   1.110       .  S
C2739      H2750   1.110       .  S
C2739      H2751   1.106       .  S
C2739      H2752   1.110       .  S
C2753      C2754   1.400       .  A
C2753      C2758   1.404       .  A
C2753      H2763   1.085       .  S
C2754      C2759   1.480       .  S
C2754      C2755   1.410       .  A
C2755      C2756   1.402       .  A
C2755      C2760   1.507       .  S
C2756      C2757   1.406       .  A
C2756      H2761   1.084       .  S
C2757      C2758   1.419       .  A
C2758      C2762   1.508       .  S
C2759      C2764   1.409       .  A
C2759      C2768   1.399       .  A
C2760      H2776   1.110       .  S
C2760      H2777   1.110       .  S
C2760      H2778   1.111       .  S
C2762      H2773   1.111       .  S
C2762      H2774   1.110       .  S
C2762      H2775   1.105       .  S
C2764      C2765   1.404       .  A
C2764      C2769   1.506       .  S
C2765      C2766   1.405       .  A
C2765      H2770   1.084       .  S
C2766      C2767   1.422       .  A
C2767      C2768   1.403       .  A
C2767      C2771   1.509       .  S
C2768      H2772   1.085       .  S
C2769      H2779   1.111       .  S
C2769      H2780   1.110       .  S
C2769      H2781   1.110       .  S
C2771      H2782   1.110       .  S
C2771      H2783   1.102       .  S
C2771      H2784   1.111       .  S
C2785      C2786   1.396       .  A
C2785      C2790   1.402       .  A
C2785      H2795   1.084       .  S
C2786      C2791   1.478       .  S
C2786      C2787   1.408       .  A
C2787      C2788   1.405       .  A
C2787      C2792   1.506       .  S
C2788      C2789   1.410       .  A
C2788      H2793   1.083       .  S
C2789      C2790   1.426       .  A
C2790      C2794   1.510       .  S
C2791      C2796   1.410       .  A
C2791      C2800   1.401       .  A
C2792      H2808   1.110       .  S
C2792      H2809   1.109       .  S
C2792      H2810   1.111       .  S
C2794      H2805   1.110       .  S
C2794      H2806   1.111       .  S
C2794      H2807   1.111       .  S
C2796      C2797   1.401       .  A
C2796      C2801   1.508       .  S
C2797      C2798   1.405       .  A
C2797      H2802   1.084       .  S
C2798      C2799   1.416       .  A
C2799      C2800   1.406       .  A
C2799      C2803   1.507       .  S
C2800      H2804   1.085       .  S
C2801      H2811   1.111       .  S
C2801      H2812   1.110       .  S
C2801      H2813   1.109       .  S
C2803      H2814   1.109       .  S
C2803      H2815   1.111       .  S
C2803      H2816   1.111       .  S
C2817      C2818   1.401       .  A
C2817      C2822   1.405       .  A
C2817      H2827   1.084       .  S
C2818      C2823   1.476       .  S
C2818      C2819   1.409       .  A
C2819      C2820   1.397       .  A
C2819      C2824   1.508       .  S
C2820      C2821   1.403       .  A
C2820      H2825   1.085       .  S
C2821      C2822   1.417       .  A
C2822      C2826   1.508       .  S
C2823      C2828   1.407       .  A
C2823      C2832   1.396       .  A
C2824      H2840   1.110       .  S
C2824      H2841   1.110       .  S
C2824      H2842   1.111       .  S
C2826      H2837   1.111       .  S
C2826      H2838   1.110       .  S
C2826      H2839   1.107       .  S
C2828      C2829   1.404       .  A
C2828      C2833   1.506       .  S
C2829      C2830   1.410       .  A
C2829      H2834   1.084       .  S
C2830      C2831   1.426       .  A
C2831      C2832   1.401       .  A
C2831      C2835   1.509       .  S
C2832      H2836   1.085       .  S
C2833      H2843   1.111       .  S
C2833      H2844   1.110       .  S
C2833      H2845   1.110       .  S
C2835      H2846   1.111       .  S
C2835      H2847   1.110       .  S
C2835      H2848   1.110       .  S
C2849      C2850   1.399       .  A
C2849      C2854   1.403       .  A
C2849      H2859   1.084       .  S
C2850      C2855   1.480   1_556  S
C2850      C2851   1.409       .  A
C2851      C2852   1.405       .  A
C2851      C2856   1.505       .  S
C2852      C2853   1.406       .  A
C2852      H2857   1.084       .  S
C2853      C2854   1.419       .  A
C2854      C2858   1.507       .  S
C2855      C2860   1.410       .  A
C2855      C2864   1.400       .  A
C2856      H2872   1.110       .  S
C2856      H2873   1.110       .  S
C2856      H2874   1.111       .  S
C2858      H2869   1.111       .  S
C2858      H2870   1.109       .  S
C2858      H2871   1.108       .  S
C2860      C2861   1.404       .  A
C2860      C2865   1.506       .  S
C2861      C2862   1.406       .  A
C2861      H2866   1.084       .  S
C2862      C2863   1.414       .  A
C2863      C2864   1.402       .  A
C2863      C2867   1.504       .  S
C2864      H2868   1.084       .  S
C2865      H2875   1.111       .  S
C2865      H2876   1.110       .  S
C2865      H2877   1.110   1_554  S
C2867      H2878   1.110       .  S
C2867      H2879   1.106       .  S
C2867      H2880   1.111       .  S
C2881      C2882   1.397       .  A
C2881      C2886   1.402       .  A
C2881      H2891   1.084       .  S
C2882      C2887   1.474       .  S
C2882      C2883   1.407       .  A
C2883      C2884   1.402       .  A
C2883      C2888   1.507       .  S
C2884      C2885   1.408       .  A
C2884      H2889   1.083       .  S
C2885      C2886   1.421       .  A
C2886      C2890   1.508       .  S
C2887      C2892   1.409       .  A
C2887      C2896   1.400       .  A
C2888      H2904   1.110       .  S
C2888      H2905   1.109       .  S
C2888      H2906   1.111       .  S
C2890      H2901   1.109       .  S
C2890      H2902   1.111       .  S
C2890      H2903   1.109       .  S
C2892      C2893   1.399       .  A
C2892      C2897   1.507       .  S
C2893      C2894   1.403       .  A
C2893      H2898   1.083       .  S
C2894      C2895   1.416       .  A
C2895      C2896   1.401       .  A
C2895      C2899   1.510       .  S
C2896      H2900   1.085       .  S
C2897      H2907   1.111       .  S
C2897      H2908   1.110       .  S
C2897      H2909   1.109       .  S
C2899      H2910   1.110       .  S
C2899      H2911   1.107       .  S
C2899      H2912   1.111       .  S
C2913      C2914   1.401       .  A
C2913      C2918   1.405       .  A
C2913      H2923   1.084       .  S
C2914      C2919   1.479   1_655  S
C2914      C2915   1.410       .  A
C2915      C2916   1.400       .  A
C2915      C2920   1.507       .  S
C2916      C2917   1.405       .  A
C2916      H2921   1.084       .  S
C2917      C2918   1.417       .  A
C2918      C2922   1.507       .  S
C2919      C2924   1.408       .  A
C2919      C2928   1.397       .  A
C2920      H2936   1.110   1_655  S
C2920      H2937   1.110   1_655  S
C2920      H2938   1.111       .  S
C2922      H2933   1.109       .  S
C2922      H2934   1.111       .  S
C2922      H2935   1.107       .  S
C2924      C2925   1.403       .  A
C2924      C2929   1.507       .  S
C2925      C2926   1.410       .  A
C2925      H2930   1.084       .  S
C2926      C2927   1.425       .  A
C2927      C2928   1.404       .  A
C2927      C2931   1.508       .  S
C2928      H2932   1.085       .  S
C2929      H2939   1.111       .  S
C2929      H2940   1.110       .  S
C2929      H2941   1.110       .  S
C2931      H2942   1.111       .  S
C2931      H2943   1.110       .  S
C2931      H2944   1.110       .  S
C2945      C2946   1.399       .  A
C2945      C2950   1.405       .  A
C2945      H2955   1.084       .  S
C2946      C2951   1.479   1_556  S
C2946      C2947   1.409       .  A
C2947      C2948   1.401       .  A
C2947      C2952   1.507       .  S
C2948      C2949   1.406       .  A
C2948      H2953   1.084       .  S
C2949      C2950   1.422       .  A
C2950      C2954   1.509       .  S
C2951      C2956   1.408       .  A
C2951      C2960   1.399       .  A
C2952      H2968   1.110       .  S
C2952      H2969   1.110       .  S
C2952      H2970   1.111       .  S
C2954      H2965   1.109       .  S
C2954      H2966   1.111       .  S
C2954      H2967   1.110       .  S
C2956      C2957   1.401       .  A
C2956      C2961   1.507       .  S
C2957      C2958   1.409       .  A
C2957      H2962   1.084       .  S
C2958      C2959   1.422       .  A
C2959      C2960   1.406       .  A
C2959      C2963   1.508       .  S
C2960      H2964   1.085       .  S
C2961      H2971   1.111       .  S
C2961      H2972   1.110   1_554  S
C2961      H2973   1.110   1_554  S
C2963      H2974   1.111       .  S
C2963      H2975   1.109       .  S
C2963      H2976   1.111       .  S
C2977      C2978   1.402       .  A
C2977      C2982   1.405       .  A
C2977      H2987   1.084       .  S
C2978      C2983   1.484       .  S
C2978      C2979   1.412       .  A
C2979      C2980   1.404       .  A
C2979      C2984   1.507       .  S
C2980      C2981   1.403       .  A
C2980      H2985   1.084       .  S
C2981      C2982   1.419       .  A
C2982      C2986   1.510       .  S
C2983      C2988   1.410       .  A
C2983      C2992   1.400       .  A
C2984      H3000   1.109       .  S
C2984      H3001   1.111       .  S
C2984      H3002   1.111       .  S
C2986      H2997   1.110       .  S
C2986      H2998   1.111       .  S
C2986      H2999   1.111       .  S
C2988      C2989   1.405       .  A
C2988      C2993   1.506       .  S
C2989      C2990   1.408       .  A
C2989      H2994   1.084       .  S
C2990      C2991   1.421       .  A
C2991      C2992   1.404       .  A
C2991      C2995   1.508       .  S
C2992      H2996   1.084       .  S
C2993      H3003   1.111       .  S
C2993      H3004   1.110       .  S
C2993      H3005   1.110       .  S
C2995      H3006   1.111       .  S
C2995      H3007   1.109       .  S
C2995      H3008   1.110       .  S
C3009      C3010   1.400       .  A
C3009      C3014   1.404       .  A
C3009      H3019   1.084       .  S
C3010      C3015   1.475       .  S
C3010      C3011   1.409       .  A
C3011      C3012   1.400       .  A
C3011      C3016   1.507       .  S
C3012      C3013   1.404       .  A
C3012      H3017   1.085       .  S
C3013      C3014   1.417       .  A
C3014      C3018   1.507       .  S
C3015      C3020   1.410       .  A
C3015      C3024   1.400       .  A
C3016      H3032   1.110       .  S
C3016      H3033   1.110       .  S
C3016      H3034   1.111       .  S
C3018      H3029   1.111       .  S
C3018      H3030   1.111       .  S
C3018      H3031   1.109       .  S
C3020      C3021   1.401       .  A
C3020      C3025   1.506       .  S
C3021      C3022   1.401       .  A
C3021      H3026   1.082       .  S
C3022      C3023   1.417       .  A
C3023      C3024   1.400       .  A
C3023      C3027   1.511       .  S
C3024      H3028   1.085       .  S
C3025      H3035   1.111       .  S
C3025      H3036   1.110       .  S
C3025      H3037   1.110       .  S
C3027      H3038   1.110       .  S
C3027      H3039   1.107       .  S
C3027      H3040   1.111       .  S
C3041      C3042   1.401       .  A
C3041      C3046   1.406       .  A
C3041      H3051   1.084       .  S
C3042      C3047   1.479       .  S
C3042      C3043   1.410       .  A
C3043      C3044   1.402       .  A
C3043      C3048   1.508       .  S
C3044      C3045   1.405       .  A
C3044      H3049   1.084       .  S
C3045      C3046   1.417       .  A
C3046      C3050   1.507       .  S
C3047      C3052   1.411       .  A
C3047      C3056   1.398       .  A
C3048      H3064   1.110       .  S
C3048      H3065   1.109       .  S
C3048      H3066   1.111       .  S
C3050      H3061   1.111       .  S
C3050      H3062   1.109       .  S
C3050      H3063   1.110       .  S
C3052      C3053   1.407       .  A
C3052      C3057   1.505       .  S
C3053      C3054   1.406       .  A
C3053      H3058   1.084       .  S
C3054      C3055   1.418       .  A
C3055      C3056   1.398       .  A
C3055      C3059   1.509       .  S
C3056      H3060   1.085       .  S
C3057      H3067   1.111       .  S
C3057      H3068   1.110       .  S
C3057      H3069   1.109       .  S
C3059      H3070   1.110       .  S
C3059      H3071   1.103       .  S
C3059      H3072   1.111       .  S
C3073      C3074   1.399       .  A
C3073      C3078   1.404       .  A
C3073      H3083   1.084       .  S
C3074      C3079   1.474   1_455  S
C3074      C3075   1.407       .  A
C3075      C3076   1.399       .  A
C3075      C3080   1.507       .  S
C3076      C3077   1.407       .  A
C3076      H3081   1.083       .  S
C3077      C3078   1.421       .  A
C3078      C3082   1.509       .  S
C3079      C3084   1.406       .  A
C3079      C3088   1.395       .  A
C3080      H3096   1.110       .  S
C3080      H3097   1.110       .  S
C3080      H3098   1.111       .  S
C3082      H3093   1.110       .  S
C3082      H3094   1.111       .  S
C3082      H3095   1.111       .  S
C3084      C3085   1.402       .  A
C3084      C3089   1.507       .  S
C3085      C3086   1.411       .  A
C3085      H3090   1.083       .  S
C3086      C3087   1.423       .  A
C3087      C3088   1.401       .  A
C3087      C3091   1.501       .  S
C3088      H3092   1.084       .  S
C3089      H3099   1.111       .  S
C3089      H3100   1.110   1_655  S
C3089      H3101   1.111   1_655  S
C3091      H3102   1.110       .  S
C3091      H3103   1.109       .  S
C3091      H3104   1.111       .  S
C3105      C3106   1.402       .  A
C3105      C3110   1.407       .  A
C3105      H3115   1.084       .  S
C3106      C3111   1.487       .  S
C3106      C3107   1.411       .  A
C3107      C3108   1.404       .  A
C3107      C3112   1.507       .  S
C3108      C3109   1.407       .  A
C3108      H3113   1.084       .  S
C3109      C3110   1.419       .  A
C3110      C3114   1.507       .  S
C3111      C3116   1.412       .  A
C3111      C3120   1.401       .  A
C3112      H3128   1.110       .  S
C3112      H3129   1.110       .  S
C3112      H3130   1.111       .  S
C3114      H3125   1.109       .  S
C3114      H3126   1.111       .  S
C3114      H3127   1.111       .  S
C3116      C3117   1.406       .  A
C3116      C3121   1.506       .  S
C3117      C3118   1.405       .  A
C3117      H3122   1.084       .  S
C3118      C3119   1.417       .  A
C3119      C3120   1.405       .  A
C3119      C3123   1.508       .  S
C3120      H3124   1.084       .  S
C3121      H3131   1.111       .  S
C3121      H3132   1.110       .  S
C3121      H3133   1.111       .  S
C3123      H3134   1.111       .  S
C3123      H3135   1.109       .  S
C3123      H3136   1.111       .  S
C3137      C3138   1.400       .  A
C3137      C3142   1.402       .  A
C3137      H3147   1.084       .  S
C3138      C3143   1.475       .  S
C3138      C3139   1.410       .  A
C3139      C3140   1.402       .  A
C3139      C3144   1.506       .  S
C3140      C3141   1.403       .  A
C3140      H3145   1.084       .  S
C3141      C3142   1.417       .  A
C3142      C3146   1.510       .  S
C3143      C3148   1.409       .  A
C3143      C3152   1.397       .  A
C3144      H3160   1.110       .  S
C3144      H3161   1.110       .  S
C3144      H3162   1.111       .  S
C3146      H3157   1.109       .  S
C3146      H3158   1.111       .  S
C3146      H3159   1.111       .  S
C3148      C3149   1.404       .  A
C3148      C3153   1.506       .  S
C3149      C3150   1.406       .  A
C3149      H3154   1.084       .  S
C3150      C3151   1.419       .  A
C3151      C3152   1.400       .  A
C3151      C3155   1.506       .  S
C3152      H3156   1.085       .  S
C3153      H3163   1.111       .  S
C3153      H3164   1.110       .  S
C3153      H3165   1.110       .  S
C3155      H3166   1.111       .  S
C3155      H3167   1.106       .  S
C3155      H3168   1.109       .  S
C3169      C3170   1.396       .  A
C3169      C3174   1.401       .  A
C3169      H3179   1.085       .  S
C3170      C3175   1.472       .  S
C3170      C3171   1.407       .  A
C3171      C3172   1.400       .  A
C3171      C3176   1.507       .  S
C3172      C3173   1.407       .  A
C3172      H3177   1.084       .  S
C3173      C3174   1.423       .  A
C3174      C3178   1.509       .  S
C3175      C3180   1.406       .  A
C3175      C3184   1.397       .  A
C3176      H3192   1.110       .  S
C3176      H3193   1.110       .  S
C3176      H3194   1.111       .  S
C3178      H3189   1.111       .  S
C3178      H3190   1.111       .  S
C3178      H3191   1.110       .  S
C3180      C3181   1.398       .  A
C3180      C3185   1.508       .  S
C3181      C3182   1.409       .  A
C3181      H3186   1.084       .  S
C3182      C3183   1.424       .  A
C3183      C3184   1.403       .  A
C3183      C3187   1.509       .  S
C3184      H3188   1.084       .  S
C3185      H3195   1.111       .  S
C3185      H3196   1.110       .  S
C3185      H3197   1.110       .  S
C3187      H3198   1.111       .  S
C3187      H3199   1.111       .  S
C3187      H3200   1.110       .  S
C3201      C3202   1.401       .  A
C3201      C3206   1.403       .  A
C3201      H3211   1.085       .  S
C3202      C3207   1.484       .  S
C3202      C3203   1.411       .  A
C3203      C3204   1.406       .  A
C3203      C3208   1.506       .  S
C3204      C3205   1.404       .  A
C3204      H3209   1.084       .  S
C3205      C3206   1.419       .  A
C3206      C3210   1.510       .  S
C3207      C3212   1.412       .  A
C3207      C3216   1.401       .  A
C3208      H3224   1.110       .  S
C3208      H3225   1.110       .  S
C3208      H3226   1.111       .  S
C3210      H3221   1.110       .  S
C3210      H3222   1.111       .  S
C3210      H3223   1.105       .  S
C3212      C3213   1.406       .  A
C3212      C3217   1.506       .  S
C3213      C3214   1.403       .  A
C3213      H3218   1.084       .  S
C3214      C3215   1.416       .  A
C3215      C3216   1.403       .  A
C3215      C3219   1.508       .  S
C3216      H3220   1.085       .  S
C3217      H3227   1.111       .  S
C3217      H3228   1.110       .  S
C3217      H3229   1.111       .  S
C3219      H3230   1.110       .  S
C3219      H3231   1.106       .  S
C3219      H3232   1.110       .  S
C3233      C3234   1.402       .  A
C3233      C3238   1.402       .  A
C3233      H3243   1.085       .  S
C3234      C3239   1.485       .  S
C3234      C3235   1.412       .  A
C3235      C3236   1.404       .  A
C3235      C3240   1.506       .  S
C3236      C3237   1.403       .  A
C3236      H3241   1.084       .  S
C3237      C3238   1.417       .  A
C3238      C3242   1.509       .  S
C3239      C3244   1.413       .  A
C3239      C3248   1.401       .  A
C3240      H3256   1.109       .  S
C3240      H3257   1.110       .  S
C3240      H3258   1.111       .  S
C3242      H3253   1.110       .  S
C3242      H3254   1.111       .  S
C3242      H3255   1.105       .  S
C3244      C3245   1.405       .  A
C3244      C3249   1.507       .  S
C3245      C3246   1.403       .  A
C3245      H3250   1.084       .  S
C3246      C3247   1.417       .  A
C3247      C3248   1.402       .  A
C3247      C3251   1.509       .  S
C3248      H3252   1.085       .  S
C3249      H3259   1.111       .  S
C3249      H3260   1.109       .  S
C3249      H3261   1.110       .  S
C3251      H3262   1.111       .  S
C3251      H3263   1.106       .  S
C3251      H3264   1.111       .  S
C3265      C3266   1.400       .  A
C3265      C3270   1.400       .  A
C3265      H3275   1.085       .  S
C3266      C3271   1.478       .  S
C3266      C3267   1.410       .  A
C3267      C3268   1.404       .  A
C3267      C3272   1.506       .  S
C3268      C3269   1.404       .  A
C3268      H3273   1.084       .  S
C3269      C3270   1.415       .  A
C3270      C3274   1.508       .  S
C3271      C3276   1.410       .  A
C3271      C3280   1.401       .  A
C3272      H3288   1.110       .  S
C3272      H3289   1.110       .  S
C3272      H3290   1.111       .  S
C3274      H3285   1.110       .  S
C3274      H3286   1.111       .  S
C3274      H3287   1.106       .  S
C3276      C3277   1.402       .  A
C3276      C3281   1.506       .  S
C3277      C3278   1.401       .  A
C3277      H3282   1.084       .  S
C3278      C3279   1.416       .  A
C3279      C3280   1.401       .  A
C3279      C3283   1.509       .  S
C3280      H3284   1.085       .  S
C3281      H3291   1.111       .  S
C3281      H3292   1.110       .  S
C3281      H3293   1.110       .  S
C3283      H3294   1.111       .  S
C3283      H3295   1.106       .  S
C3283      H3296   1.110       .  S
C3297      C3298   1.399       .  A
C3297      C3302   1.401       .  A
C3297      H3307   1.085       .  S
C3298      C3303   1.479       .  S
C3298      C3299   1.410       .  A
C3299      C3300   1.405       .  A
C3299      C3304   1.505       .  S
C3300      C3301   1.405       .  A
C3300      H3305   1.085       .  S
C3301      C3302   1.418       .  A
C3302      C3306   1.510       .  S
C3303      C3308   1.410       .  A
C3303      C3312   1.400       .  A
C3304      H3320   1.110       .  S
C3304      H3321   1.110       .  S
C3304      H3322   1.111       .  S
C3306      H3317   1.111       .  S
C3306      H3318   1.110       .  S
C3306      H3319   1.105       .  S
C3308      C3309   1.401       .  A
C3308      C3313   1.507       .  S
C3309      C3310   1.405       .  A
C3309      H3314   1.084       .  S
C3310      C3311   1.418       .  A
C3311      C3312   1.404       .  A
C3311      C3315   1.506       .  S
C3312      H3316   1.085       .  S
C3313      H3323   1.111       .  S
C3313      H3324   1.110       .  S
C3313      H3325   1.110       .  S
C3315      H3326   1.110       .  S
C3315      H3327   1.105       .  S
C3315      H3328   1.111       .  S
C3329      C3330   1.403       .  A
C3329      C3334   1.408       .  A
C3329      H3339   1.084       .  S
C3330      C3335   1.483   1_655  S
C3330      C3331   1.410       .  A
C3331      C3332   1.400       .  A
C3331      C3336   1.507       .  S
C3332      C3333   1.404       .  A
C3332      H3337   1.084       .  S
C3333      C3334   1.419       .  A
C3334      C3338   1.509       .  S
C3335      C3340   1.411       .  A
C3335      C3344   1.400       .  A
C3336      H3352   1.110   1_655  S
C3336      H3353   1.110   1_655  S
C3336      H3354   1.111       .  S
C3338      H3349   1.111       .  S
C3338      H3350   1.110       .  S
C3338      H3351   1.107       .  S
C3340      C3341   1.408       .  A
C3340      C3345   1.506       .  S
C3341      C3342   1.406       .  A
C3341      H3346   1.084       .  S
C3342      C3343   1.418       .  A
C3343      C3344   1.404       .  A
C3343      C3347   1.508       .  S
C3344      H3348   1.085       .  S
C3345      H3355   1.111       .  S
C3345      H3356   1.110       .  S
C3345      H3357   1.110       .  S
C3347      H3358   1.111       .  S
C3347      H3359   1.109       .  S
C3347      H3360   1.111       .  S
C3361      C3362   1.400       .  A
C3361      C3366   1.405       .  A
C3361      H3371   1.085       .  S
C3362      C3367   1.474   1_556  S
C3362      C3363   1.408       .  A
C3363      C3364   1.397       .  A
C3363      C3368   1.508       .  S
C3364      C3365   1.405       .  A
C3364      H3369   1.084       .  S
C3365      C3366   1.419       .  A
C3366      C3370   1.508       .  S
C3367      C3372   1.406       .  A
C3367      C3376   1.399       .  A
C3368      H3384   1.110       .  S
C3368      H3385   1.110       .  S
C3368      H3386   1.111       .  S
C3370      H3381   1.110       .  S
C3370      H3382   1.111       .  S
C3370      H3383   1.109       .  S
C3372      C3373   1.402       .  A
C3372      C3377   1.506       .  S
C3373      C3374   1.409       .  A
C3373      H3378   1.083       .  S
C3374      C3375   1.420       .  A
C3375      C3376   1.400       .  A
C3375      C3379   1.509       .  S
C3376      H3380   1.084       .  S
C3377      H3387   1.111       .  S
C3377      H3388   1.110       .  S
C3377      H3389   1.110       .  S
C3379      H3390   1.110       .  S
C3379      H3391   1.111       .  S
C3379      H3392   1.111       .  S
C3393      C3394   1.400       .  A
C3393      C3398   1.402       .  A
C3393      H3403   1.085       .  S
C3394      C3399   1.477       .  S
C3394      C3395   1.409       .  A
C3395      C3396   1.400       .  A
C3395      C3400   1.507       .  S
C3396      C3397   1.406       .  A
C3396      H3401   1.084       .  S
C3397      C3398   1.419       .  A
C3398      C3402   1.510       .  S
C3399      C3404   1.409       .  A
C3399      C3408   1.398       .  A
C3400      H3416   1.109       .  S
C3400      H3417   1.110       .  S
C3400      H3418   1.111       .  S
C3402      H3413   1.111       .  S
C3402      H3414   1.111       .  S
C3402      H3415   1.110       .  S
C3404      C3405   1.402       .  A
C3404      C3409   1.508       .  S
C3405      C3406   1.409       .  A
C3405      H3410   1.084       .  S
C3406      C3407   1.421       .  A
C3407      C3408   1.401       .  A
C3407      C3411   1.509       .  S
C3408      H3412   1.085       .  S
C3409      H3419   1.111       .  S
C3409      H3420   1.109       .  S
C3409      H3421   1.110       .  S
C3411      H3422   1.110       .  S
C3411      H3423   1.110       .  S
C3411      H3424   1.111       .  S
C3425      C3426   1.399       .  A
C3425      C3430   1.400       .  A
C3425      H3435   1.085       .  S
C3426      C3431   1.477       .  S
C3426      C3427   1.409       .  A
C3427      C3428   1.404       .  A
C3427      C3432   1.506       .  S
C3428      C3429   1.405       .  A
C3428      H3433   1.085       .  S
C3429      C3430   1.418       .  A
C3430      C3434   1.510       .  S
C3431      C3436   1.408       .  A
C3431      C3440   1.398       .  A
C3432      H3448   1.110       .  S
C3432      H3449   1.110       .  S
C3432      H3450   1.111       .  S
C3434      H3445   1.110       .  S
C3434      H3446   1.111       .  S
C3434      H3447   1.105       .  S
C3436      C3437   1.404       .  A
C3436      C3441   1.506       .  S
C3437      C3438   1.407       .  A
C3437      H3442   1.083       .  S
C3438      C3439   1.420       .  A
C3439      C3440   1.400       .  A
C3439      C3443   1.510       .  S
C3440      H3444   1.085       .  S
C3441      H3451   1.111       .  S
C3441      H3452   1.110       .  S
C3441      H3453   1.110       .  S
C3443      H3454   1.111       .  S
C3443      H3455   1.104       .  S
C3443      H3456   1.110       .  S
C3457      C3458   1.400       .  A
C3457      C3462   1.401       .  A
C3457      H3467   1.085       .  S
C3458      C3463   1.482   1_565  S
C3458      C3459   1.411       .  A
C3459      C3460   1.405       .  A
C3459      C3464   1.506       .  S
C3460      C3461   1.404       .  A
C3460      H3465   1.084       .  S
C3461      C3462   1.418       .  A
C3462      C3466   1.509       .  S
C3463      C3468   1.412       .  A
C3463      C3472   1.401       .  A
C3464      H3480   1.109       .  S
C3464      H3481   1.110       .  S
C3464      H3482   1.111       .  S
C3466      H3477   1.110       .  S
C3466      H3478   1.110       .  S
C3466      H3479   1.105       .  S
C3468      C3469   1.405       .  A
C3468      C3473   1.506       .  S
C3469      C3470   1.403       .  A
C3469      H3474   1.084       .  S
C3470      C3471   1.416       .  A
C3471      C3472   1.401       .  A
C3471      C3475   1.509       .  S
C3472      H3476   1.085       .  S
C3473      H3483   1.111       .  S
C3473      H3484   1.109       .  S
C3473      H3485   1.110       .  S
C3475      H3486   1.111       .  S
C3475      H3487   1.106       .  S
C3475      H3488   1.110       .  S
C3489      C3490   1.400       .  A
C3489      C3494   1.402       .  A
C3489      H3499   1.084       .  S
C3490      C3495   1.480   1_556  S
C3490      C3491   1.410       .  A
C3491      C3492   1.405       .  A
C3491      C3496   1.505       .  S
C3492      C3493   1.404       .  A
C3492      H3497   1.084       .  S
C3493      C3494   1.417       .  A
C3494      C3498   1.508       .  S
C3495      C3500   1.410       .  A
C3495      C3504   1.401       .  A
C3496      H3512   1.110       .  S
C3496      H3513   1.110       .  S
C3496      H3514   1.111       .  S
C3498      H3509   1.111       .  S
C3498      H3510   1.109       .  S
C3498      H3511   1.109       .  S
C3500      C3501   1.402       .  A
C3500      C3505   1.507       .  S
C3501      C3502   1.404       .  A
C3501      H3506   1.084       .  S
C3502      C3503   1.418       .  A
C3503      C3504   1.404       .  A
C3503      C3507   1.507       .  S
C3504      H3508   1.084       .  S
C3505      H3515   1.111       .  S
C3505      H3516   1.110       .  S
C3505      H3517   1.110       .  S
C3507      H3518   1.110       .  S
C3507      H3519   1.105       .  S
C3507      H3520   1.111       .  S
C3521      C3522   1.401       .  A
C3521      C3526   1.408       .  A
C3521      H3531   1.085       .  S
C3522      C3527   1.484       .  S
C3522      C3523   1.410       .  A
C3523      C3524   1.402       .  A
C3523      C3528   1.508       .  S
C3524      C3525   1.409       .  A
C3524      H3529   1.084       .  S
C3525      C3526   1.422       .  A
C3526      C3530   1.508       .  S
C3527      C3532   1.410       .  A
C3527      C3536   1.401       .  A
C3528      H3544   1.109       .  S
C3528      H3545   1.110       .  S
C3528      H3546   1.111       .  S
C3530      H3541   1.111       .  S
C3530      H3542   1.111       .  S
C3530      H3543   1.109       .  S
C3532      C3533   1.405       .  A
C3532      C3537   1.506       .  S
C3533      C3534   1.407       .  A
C3533      H3538   1.084       .  S
C3534      C3535   1.420       .  A
C3535      C3536   1.404       .  A
C3535      C3539   1.510       .  S
C3536      H3540   1.084       .  S
C3537      H3547   1.111       .  S
C3537      H3548   1.110       .  S
C3537      H3549   1.110       .  S
C3539      H3550   1.110       .  S
C3539      H3551   1.111       .  S
C3539      H3552   1.111       .  S
C3553      C3554   1.401       .  A
C3553      C3558   1.404       .  A
C3553      H3563   1.084       .  S
C3554      C3559   1.480       .  S
C3554      C3555   1.409       .  A
C3555      C3556   1.401       .  A
C3555      C3560   1.507       .  S
C3556      C3557   1.406       .  A
C3556      H3561   1.083       .  S
C3557      C3558   1.420       .  A
C3558      C3562   1.510       .  S
C3559      C3564   1.408       .  A
C3559      C3568   1.400       .  A
C3560      H3576   1.110       .  S
C3560      H3577   1.110       .  S
C3560      H3578   1.111       .  S
C3562      H3573   1.111       .  S
C3562      H3574   1.111       .  S
C3562      H3575   1.110       .  S
C3564      C3565   1.402       .  A
C3564      C3569   1.508       .  S
C3565      C3566   1.410       .  A
C3565      H3570   1.083       .  S
C3566      C3567   1.422       .  A
C3567      C3568   1.405       .  A
C3567      C3571   1.508       .  S
C3568      H3572   1.084       .  S
C3569      H3579   1.111       .  S
C3569      H3580   1.110       .  S
C3569      H3581   1.110       .  S
C3571      H3582   1.111       .  S
C3571      H3583   1.109       .  S
C3571      H3584   1.111       .  S
C3585      C3586   1.398       .  A
C3585      C3590   1.400       .  A
C3585      H3595   1.085       .  S
C3586      C3591   1.481       .  S
C3586      C3587   1.411       .  A
C3587      C3588   1.407       .  A
C3587      C3592   1.505       .  S
C3588      C3589   1.405       .  A
C3588      H3593   1.084       .  S
C3589      C3590   1.419       .  A
C3590      C3594   1.509       .  S
C3591      C3596   1.410       .  A
C3591      C3600   1.402       .  A
C3592      H3608   1.110       .  S
C3592      H3609   1.110       .  S
C3592      H3610   1.111       .  S
C3594      H3605   1.111       .  S
C3594      H3606   1.110       .  S
C3594      H3607   1.104       .  S
C3596      C3597   1.402       .  A
C3596      C3601   1.507       .  S
C3597      C3598   1.406       .  A
C3597      H3602   1.084       .  S
C3598      C3599   1.415       .  A
C3599      C3600   1.407       .  A
C3599      C3603   1.507       .  S
C3600      H3604   1.084       .  S
C3601      H3611   1.111       .  S
C3601      H3612   1.110       .  S
C3601      H3613   1.110       .  S
C3603      H3614   1.109       .  S
C3603      H3615   1.110       .  S
C3603      H3616   1.111       .  S
C3617      C3618   1.402       .  A
C3617      C3622   1.403       .  A
C3617      H3627   1.085       .  S
C3618      C3623   1.486   1_655  S
C3618      C3619   1.413       .  A
C3619      C3620   1.404       .  A
C3619      C3624   1.507       .  S
C3620      C3621   1.402       .  A
C3620      H3625   1.084       .  S
C3621      C3622   1.418       .  A
C3622      C3626   1.509       .  S
C3623      C3628   1.413       .  A
C3623      C3632   1.402       .  A
C3624      H3640   1.109       .  S
C3624      H3641   1.110       .  S
C3624      H3642   1.111       .  S
C3626      H3637   1.111       .  S
C3626      H3638   1.110       .  S
C3626      H3639   1.105       .  S
C3628      C3629   1.406       .  A
C3628      C3633   1.506       .  S
C3629      C3630   1.404       .  A
C3629      H3634   1.084       .  S
C3630      C3631   1.418       .  A
C3631      C3632   1.402       .  A
C3631      C3635   1.509       .  S
C3632      H3636   1.085       .  S
C3633      H3643   1.111       .  S
C3633      H3644   1.109       .  S
C3633      H3645   1.111       .  S
C3635      H3646   1.110       .  S
C3635      H3647   1.105       .  S
C3635      H3648   1.111       .  S
C3649      C3650   1.397       .  A
C3649      C3654   1.398       .  A
C3649      H3659   1.085       .  S
C3650      C3655   1.473   1_565  S
C3650      C3651   1.409       .  A
C3651      C3652   1.403       .  A
C3651      C3656   1.506       .  S
C3652      C3653   1.404       .  A
C3652      H3657   1.084       .  S
C3653      C3654   1.419       .  A
C3654      C3658   1.510       .  S
C3655      C3660   1.408       .  A
C3655      C3664   1.397       .  A
C3656      H3672   1.110       .  S
C3656      H3673   1.110       .  S
C3656      H3674   1.111       .  S
C3658      H3669   1.111       .  S
C3658      H3670   1.110       .  S
C3658      H3671   1.104       .  S
C3660      C3661   1.402       .  A
C3660      C3665   1.507       .  S
C3661      C3662   1.407       .  A
C3661      H3666   1.085       .  S
C3662      C3663   1.420       .  A
C3663      C3664   1.400       .  A
C3663      C3667   1.503       .  S
C3664      H3668   1.085       .  S
C3665      H3675   1.111       .  S
C3665      H3676   1.110       .  S
C3665      H3677   1.110       .  S
C3667      H3678   1.110       .  S
C3667      H3679   1.099       .  S
C3667      H3680   1.111       .  S
C3681      C3682   1.398       .  A
C3681      C3686   1.402       .  A
C3681      H3691   1.085       .  S
C3682      C3687   1.475       .  S
C3682      C3683   1.408       .  A
C3683      C3684   1.401       .  A
C3683      C3688   1.506       .  S
C3684      C3685   1.406       .  A
C3684      H3689   1.084       .  S
C3685      C3686   1.424       .  A
C3686      C3690   1.511       .  S
C3687      C3692   1.407       .  A
C3687      C3696   1.400       .  A
C3688      H3704   1.110       .  S
C3688      H3705   1.110       .  S
C3688      H3706   1.111       .  S
C3690      H3701   1.111       .  S
C3690      H3702   1.110       .  S
C3690      H3703   1.110       .  S
C3692      C3693   1.401       .  A
C3692      C3697   1.507       .  S
C3693      C3694   1.409       .  A
C3693      H3698   1.083       .  S
C3694      C3695   1.419       .  A
C3695      C3696   1.403       .  A
C3695      C3699   1.507       .  S
C3696      H3700   1.084       .  S
C3697      H3707   1.111       .  S
C3697      H3708   1.110       .  S
C3697      H3709   1.110       .  S
C3699      H3710   1.111       .  S
C3699      H3711   1.109       .  S
C3699      H3712   1.110       .  S
C3713      C3714   1.398       .  A
C3713      C3718   1.403       .  A
C3713      H3723   1.084       .  S
C3714      C3719   1.480       .  S
C3714      C3715   1.408       .  A
C3715      C3716   1.405       .  A
C3715      C3720   1.506       .  S
C3716      C3717   1.409       .  A
C3716      H3721   1.084       .  S
C3717      C3718   1.424       .  A
C3718      C3722   1.510       .  S
C3719      C3724   1.408       .  A
C3719      C3728   1.397       .  A
C3720      H3736   1.110       .  S
C3720      H3737   1.110       .  S
C3720      H3738   1.111       .  S
C3722      H3733   1.111       .  S
C3722      H3734   1.110       .  S
C3722      H3735   1.110       .  S
C3724      C3725   1.404       .  A
C3724      C3729   1.507       .  S
C3725      C3726   1.410       .  A
C3725      H3730   1.083       .  S
C3726      C3727   1.424       .  A
C3727      C3728   1.404       .  A
C3727      C3731   1.509       .  S
C3728      H3732   1.084       .  S
C3729      H3739   1.111       .  S
C3729      H3740   1.110       .  S
C3729      H3741   1.110       .  S
C3731      H3742   1.111       .  S
C3731      H3743   1.110       .  S
C3731      H3744   1.111       .  S
C3745      C3746   1.397       .  A
C3745      C3750   1.401       .  A
C3745      H3755   1.085       .  S
C3746      C3751   1.475       .  S
C3746      C3747   1.407       .  A
C3747      C3748   1.402       .  A
C3747      C3752   1.506       .  S
C3748      C3749   1.410       .  A
C3748      H3753   1.085       .  S
C3749      C3750   1.423       .  A
C3750      C3754   1.510       .  S
C3751      C3756   1.408       .  A
C3751      C3760   1.398       .  A
C3752      H3768   1.110       .  S
C3752      H3769   1.110       .  S
C3752      H3770   1.111       .  S
C3754      H3765   1.111       .  S
C3754      H3766   1.111       .  S
C3754      H3767   1.110       .  S
C3756      C3757   1.401       .  A
C3756      C3761   1.507       .  S
C3757      C3758   1.407       .  A
C3757      H3762   1.084       .  S
C3758      C3759   1.421       .  A
C3759      C3760   1.403       .  A
C3759      C3763   1.508       .  S
C3760      H3764   1.084       .  S
C3761      H3771   1.111       .  S
C3761      H3772   1.110       .  S
C3761      H3773   1.110       .  S
C3763      H3774   1.109       .  S
C3763      H3775   1.111       .  S
C3763      H3776   1.111       .  S
