geometry optimzed in LAMMPS
_audit_creation_date              2020-11-30 
_audit_creation_method            'lammps2cif' 
_symmetry_space_group_name_H-M    'P1' 
_symmetry_Int_Tables_number       1 
_symmetry_cell_setting            triclinic 
loop_ 
_symmetry_equiv_pos_as_xyz 
  x,y,z 
_cell_length_a                    47.76337243 
_cell_length_b                    47.72954963817321 
_cell_length_c                    47.70097029097457 
_cell_angle_alpha                 90.30543826675269 
_cell_angle_beta                  90.14836048498726 
_cell_angle_gamma                 89.57927976012483 
loop_ 
_atom_site_label 
_atom_site_type_symbol 
_atom_site_fract_x 
_atom_site_fract_y 
_atom_site_fract_z 
_atom_site_charge 
O1          O  0.83906620  0.88164785  0.60314939    -0.82500
C2          C  0.87980744  0.81148360  0.69066092     0.96800
O3          O  0.88040715  0.80697384  0.66464525    -0.71700
O4          O  0.83397108  0.80922222  0.63639630    -0.75300
Al5        Al  0.86897329  0.82747807  0.63258759     1.49000
C6          C  0.80951326  0.81875304  0.63342483     0.92100
O7          O  0.81000283  0.87506268  0.67590231    -0.81500
O8          O  0.88215784  0.90707278  0.66738643    -0.75000
Al9        Al  0.82689620  0.87706482  0.64045456     1.90100
O10         O  0.84592196  0.88112677  0.70367149    -0.74100
O11         O  0.91362588  0.86211695  0.66618205    -0.74000
O12         O  0.87593300  0.83581732  0.70014132    -0.79600
O13         O  0.90567946  0.84067394  0.62630106    -0.77800
O14         O  0.85789892  0.85839283  0.65143409    -1.13900
O15         O  0.86000298  0.84130045  0.59620340    -0.73100
C16         C  0.85014840  0.86400253  0.58689392     0.97600
C17         C  0.81987495  0.87903486  0.70001815     0.94000
Al18       Al  0.87760140  0.87047291  0.68145061     1.55600
O19         O  0.80535524  0.84476002  0.63137120    -0.77800
C20         C  0.92239759  0.85182902  0.64341049     0.98100
C21         C  0.86428811  0.92297035  0.65620283     0.93000
O22         O  0.84134694  0.91348953  0.64734464    -0.83100
O23         O  0.66814069  0.88417999  0.90471971    -0.82500
C24         C  0.62895397  0.81564129  0.81594716     0.96800
O25         O  0.62164362  0.81343775  0.84127722    -0.71700
O26         O  0.66671513  0.81006812  0.87099461    -0.75300
Al27       Al  0.63502330  0.83288518  0.87406107     1.49000
C28         C  0.69169394  0.81560083  0.87696637     0.76100
O29         O  0.70223263  0.87014790  0.83445065    -0.81500
O30         O  0.63116694  0.91052829  0.83869100    -0.75000
Al31       Al  0.68281009  0.87619104  0.86856379     1.90100
O32         O  0.66902699  0.88298185  0.80563972    -0.74100
O33         O  0.59712368  0.86749131  0.83597894    -0.74000
O34         O  0.63802070  0.83855827  0.80684868    -0.79600
O35         O  0.60098864  0.85252165  0.87911255    -0.77800
O36         O  0.65101728  0.86115281  0.85586656    -1.13900
O37         O  0.64522391  0.84520341  0.91066473    -0.73100
C38         C  0.65615594  0.86708763  0.92061783     0.97600
C39         C  0.69438091  0.87707577  0.81027503     0.94000
Al40       Al  0.63512945  0.87384727  0.82452252     1.55600
O41         O  0.69938149  0.84080019  0.88041885    -0.77800
C42         C  0.58610836  0.86155337  0.85926803     0.98100
C43         C  0.65025241  0.92555957  0.84899847     0.93000
O44         O  0.67247739  0.91447032  0.85878055    -0.83100
O45         O  0.90554740  0.66409340  0.87641938    -0.82500
C46         C  0.80797494  0.64057562  0.81306635     0.96800
O47         O  0.83292642  0.63528359  0.80581774    -0.71700
O48         O  0.86623163  0.67887749  0.80550365    -0.75300
Al49       Al  0.86870459  0.64370075  0.82304158     1.49000
C50         C  0.87771612  0.70095231  0.81421162     0.92100
O51         O  0.84113158  0.70841923  0.87069169    -0.81500
O52         O  0.84125934  0.63464573  0.90457628    -0.75000
Al53       Al  0.87244791  0.68493677  0.87272140     1.90100
O54         O  0.80879762  0.67821991  0.88252048    -0.74100
O55         O  0.83333787  0.60400870  0.86026463    -0.74000
O56         O  0.80262239  0.64786985  0.83777932    -0.79600
O57         O  0.87276432  0.60743584  0.83704593    -0.77800
O58         O  0.85495711  0.65694170  0.85525228    -1.13900
O59         O  0.90771136  0.64891294  0.83301459    -0.73100
C60         C  0.91947799  0.65422046  0.85628573     0.97600
C61         C  0.81641887  0.70323061  0.87793955     0.94000
Al62       Al  0.82412812  0.64240169  0.87006402     1.55600
O63         O  0.88523811  0.70324772  0.83950146    -0.77800
C64         C  0.85501529  0.59280509  0.84959992     0.98100
C65         C  0.85426777  0.65146953  0.91999081     0.93000
O66         O  0.86393243  0.67379246  0.91007644    -0.83100
O67         O  0.65753097  0.63602483  0.59649437    -0.82500
C68         C  0.63297073  0.70122138  0.69355543     0.96800
O69         O  0.62602246  0.70548818  0.66860742    -0.71700
O70         O  0.67236507  0.70553274  0.63946509    -0.75300
Al71       Al  0.63740875  0.68787163  0.63492969     1.49000
C72         C  0.69528649  0.69663658  0.62951196     0.92100
O73         O  0.70126568  0.63625976  0.66281933    -0.81500
O74         O  0.62936633  0.60625213  0.66757176    -0.75000
Al75       Al  0.67771226  0.63739226  0.63119503     1.90100
O76         O  0.67125372  0.63253326  0.69733918    -0.74100
O77         O  0.59764443  0.65097708  0.66978751    -0.74000
O78         O  0.64054934  0.67720184  0.70105862    -0.79600
O79         O  0.60186986  0.67241118  0.62914920    -0.77800
O80         O  0.65040569  0.65573259  0.64926469    -1.13900
O81         O  0.64493706  0.67993639  0.59708218    -0.73100
C82         C  0.64862670  0.65744805  0.58388258     0.97600
C83         C  0.69618700  0.63294802  0.68845862     0.94000
Al84       Al  0.63587932  0.64288049  0.68116728     1.55600
O85         O  0.69779493  0.67131857  0.62127137    -0.77800
C86         C  0.58723673  0.65926162  0.64663101     0.98100
C87         C  0.64388584  0.59034491  0.65227408     0.93000
O88         O  0.66388933  0.60016370  0.63816390    -0.83100
O89         O  0.86887147  0.16936622  0.59475158    -0.82500
C90         C  0.81154906  0.12997365  0.69095713     0.96800
O91         O  0.80779064  0.12215771  0.66596519    -0.71700
O92         O  0.79975509  0.16728617  0.63694346    -0.75300
Al93       Al  0.82292647  0.13586874  0.63171580     1.49000
C94         C  0.80459445  0.19216701  0.62999128     0.92100
O95         O  0.86381036  0.20507627  0.66665222    -0.81500
O96         O  0.90535782  0.13554194  0.65886944    -0.75000
Al97       Al  0.86529067  0.18477462  0.63189521     1.90100
O98         O  0.87873075  0.17216770  0.69475703    -0.74100
O99         O  0.86367220  0.09944646  0.66555146    -0.74000
O100        O  0.83516984  0.13932029  0.69834927    -0.79600
O101        O  0.84290340  0.10244784  0.62469029    -0.77800
O102        O  0.85270542  0.15290216  0.64672019    -1.13900
O103        O  0.83021577  0.14533009  0.59397353    -0.73100
C104        C  0.85070635  0.15566768  0.58130861     0.97600
C105        C  0.87286914  0.19753223  0.69034155     0.94000
Al106      Al  0.86932412  0.13781523  0.67677035     1.55600
O107        O  0.82910131  0.20000900  0.62419824    -0.77800
C108        C  0.85561181  0.08818060  0.64287890     0.98100
C109        C  0.91735237  0.15475482  0.64523740     0.93000
O110        O  0.90366567  0.17579655  0.63677568    -0.83100
O111        O  0.85949175  0.33983895  0.90022181    -0.82500
C112        C  0.81112580  0.38361930  0.80222259     0.96800
O113        O  0.80304033  0.37215502  0.82449042    -0.71700
O114        O  0.80486344  0.33825883  0.86710103    -0.75300
Al115      Al  0.82028654  0.37422947  0.86026862     1.49000
C116        C  0.81310210  0.31380128  0.86137344     0.92100
O117        O  0.88251283  0.31707800  0.82562579    -0.81500
O118        O  0.90790473  0.37372951  0.83103782    -0.75000
Al119      Al  0.86968852  0.33164105  0.86150573     1.90100
O120        O  0.87011840  0.34943906  0.79538987    -0.74100
O121        O  0.87111243  0.41483357  0.84061588    -0.74000
O122        O  0.83600846  0.39220592  0.80025034    -0.79600
O123        O  0.82810175  0.41302631  0.85657551    -0.77800
O124        O  0.85339957  0.36226126  0.84721570    -1.13900
O125        O  0.83325458  0.37762920  0.89760950    -0.73100
C126        C  0.84675775  0.36009907  0.91208870     0.97600
C127        C  0.87795070  0.32471196  0.80055888     0.94000
Al128      Al  0.86993497  0.38097847  0.81940659     1.55600
O129        O  0.83825712  0.30908695  0.85543467    -0.77800
C130        C  0.85015004  0.42660126  0.85189057     0.98100
C131        C  0.91902859  0.36261887  0.85234283     0.93000
O132        O  0.90413266  0.34949590  0.86946456    -0.83100
O133        O  0.62763549  0.16947509  0.90573109    -0.82500
C134        C  0.69426845  0.13920160  0.81163522     0.96800
O135        O  0.69898442  0.13415131  0.83705569    -0.71700
O136        O  0.69955939  0.17841267  0.86775386    -0.75300
Al137      Al  0.68055100  0.14420114  0.87085953     1.49000
C138        C  0.69155394  0.20197478  0.87660571     0.92100
O139        O  0.63658419  0.20996275  0.83891492    -0.81500
O140        O  0.59775967  0.13901757  0.83913049    -0.75000
Al141      Al  0.63306150  0.18812143  0.87130919     1.90100
O142        O  0.62589223  0.17865033  0.80676540    -0.74100
O143        O  0.64225604  0.10456648  0.83525399    -0.74000
O144        O  0.66977526  0.14515141  0.80356072    -0.79600
O145        O  0.66536194  0.10819707  0.87502005    -0.77800
O146        O  0.64940768  0.15822617  0.85528425    -1.13900
O147        O  0.66975488  0.15138424  0.90889534    -0.73100
C148        C  0.64692774  0.15865277  0.92020664     0.97600
C149        C  0.63033416  0.20388088  0.81395701     0.94000
Al150      Al  0.63511252  0.14303049  0.82394250     1.55600
O151        O  0.66656898  0.20569319  0.88421403    -0.77800
C152        C  0.65303443  0.09339009  0.85690097     0.98100
C153        C  0.58375701  0.15761749  0.85200891     0.93000
O154        O  0.59596162  0.17852955  0.86226189    -0.83100
O155        O  0.63015330  0.34099712  0.59277181    -0.82500
C156        C  0.68572476  0.37991534  0.69024616     0.96800
O157        O  0.69208159  0.38666370  0.66540943    -0.71700
O158        O  0.70065244  0.34330891  0.63343549    -0.75300
Al159      Al  0.67692006  0.37446834  0.62946810     1.49000
C160        C  0.69631641  0.31874532  0.62509521     0.92100
O161        O  0.63992759  0.30439253  0.66135123    -0.81500
O162        O  0.59388315  0.37232224  0.65468588    -0.75000
Al163      Al  0.63573561  0.32476195  0.62804412     1.90100
O164        O  0.62102953  0.33483429  0.69029870    -0.74100
O165        O  0.63434766  0.41022824  0.66369909    -0.74000
O166        O  0.66184373  0.37032227  0.69548684    -0.79600
O167        O  0.65702383  0.40817608  0.62393861    -0.77800
O168        O  0.64725228  0.35678240  0.64358660    -1.13900
O169        O  0.66870877  0.36541312  0.59042720    -0.73100
C170        C  0.64810253  0.35365170  0.57846992     0.97600
C171        C  0.62945921  0.31015369  0.68484287     0.94000
Al172      Al  0.62928375  0.37083399  0.67340274     1.55600
O173        O  0.67205001  0.31097751  0.61827612    -0.77800
C174        C  0.64414356  0.42229371  0.64224194     0.98100
C175        C  0.58242066  0.35191233  0.64229705     0.93000
O176        O  0.59685762  0.33109172  0.63439921    -0.83100
O177        O  0.16933100  0.90154224  0.61666797    -0.82500
C178        C  0.13244712  0.80752134  0.67683965     0.96800
O179        O  0.12846613  0.83275344  0.68414441    -0.71700
O180        O  0.17501261  0.86103837  0.68765435    -0.75300
Al181      Al  0.14094076  0.86741780  0.66817821     1.49000
C182        C  0.19899165  0.86851159  0.67992456     0.92100
O183        O  0.20362989  0.83112515  0.62376735    -0.81500
O184        O  0.13102584  0.84265462  0.58648507    -0.75000
Al185      Al  0.18479856  0.86563752  0.62074761     1.90100
O186        O  0.17003748  0.80448268  0.60768572    -0.74100
O187        O  0.09911141  0.83579355  0.63027134    -0.74000
O188        O  0.13965044  0.80143539  0.65226209    -0.79600
O189        O  0.10522912  0.87536813  0.65284686    -0.77800
O190        O  0.15387948  0.85230087  0.63646500    -1.13900
O191        O  0.15076995  0.90526142  0.65867384    -0.73100
C192        C  0.15928552  0.91631465  0.63618450     0.97600
C193        C  0.19536604  0.80771146  0.61499572     0.94000
Al194      Al  0.13635616  0.82357406  0.62044725     1.55600
O195        O  0.20320530  0.87563666  0.65487456    -0.77800
C196        C  0.08923753  0.85803360  0.64103694     0.98100
C197        C  0.15021773  0.85284940  0.57183607     0.93000
O198        O  0.17363248  0.85867524  0.58270334    -0.83100
O199        O  0.34597420  0.90347022  0.86371609    -0.82500
C200        C  0.37664808  0.80724459  0.79978840     0.96800
O201        O  0.38198605  0.83242762  0.79471911    -0.71700
O202        O  0.33460040  0.85962760  0.79492222    -0.75300
Al203      Al  0.36948433  0.86612746  0.81196009     1.49000
C204        C  0.31098556  0.86721419  0.80408944     0.92100
O205        O  0.30901830  0.83327238  0.86413774    -0.81500
O206        O  0.38322915  0.83758313  0.89335217    -0.75000
Al207      Al  0.32939805  0.86708429  0.86271283     1.90100
O208        O  0.34301929  0.80308397  0.87112446    -0.74100
O209        O  0.41261573  0.83364594  0.84741882    -0.74000
O210        O  0.37041144  0.80000913  0.82429803    -0.79600
O211        O  0.40541681  0.87386329  0.82609081    -0.77800
O212        O  0.35825268  0.85146106  0.84445344    -1.13900
O213        O  0.36004374  0.90376534  0.82025292    -0.73100
C214        C  0.35502101  0.91658374  0.84276920     0.97600
C215        C  0.31722202  0.80879098  0.86969558     0.94000
Al216      Al  0.37586341  0.82121490  0.85787779     1.55600
O217        O  0.30795730  0.87497776  0.82935897    -0.77800
C218        C  0.42162780  0.85666816  0.83800291     0.98100
C219        C  0.36690792  0.85115877  0.90915561     0.93000
O220        O  0.34454320  0.86170905  0.89955571    -0.83100
O221        O  0.16663579  0.60889350  0.86233792    -0.82500
C222        C  0.12384941  0.70221387  0.80394160     0.96800
O223        O  0.12027411  0.67686680  0.79708018    -0.71700
O224        O  0.16702554  0.65021969  0.79216892    -0.75300
Al225      Al  0.13470689  0.64260735  0.81256782     1.49000
C226        C  0.19183285  0.64376745  0.79808622     0.92100
O227        O  0.19796927  0.68032141  0.85594485    -0.81500
O228        O  0.12706606  0.66751195  0.89434387    -0.75000
Al229      Al  0.18051632  0.64528730  0.85824015     1.90100
O230        O  0.16352796  0.70625123  0.87222405    -0.74100
O231        O  0.09345038  0.67317325  0.85168287    -0.74000
O232        O  0.13150287  0.70879290  0.82827473    -0.79600
O233        O  0.10042800  0.63361362  0.82909001    -0.77800
O234        O  0.14846187  0.65809699  0.84372776    -1.13900
O235        O  0.14622552  0.60477000  0.82134496    -0.73100
C236        C  0.15559170  0.59388564  0.84366747     0.97600
C237        C  0.18910475  0.70316635  0.86592143     0.94000
Al238      Al  0.13035968  0.68648490  0.86026119     1.55600
O239        O  0.19837731  0.63652415  0.82274635    -0.77800
C240        C  0.08433713  0.65046440  0.84150448     0.98100
C241        C  0.14704346  0.65761595  0.90842125     0.93000
O242        O  0.17004319  0.65134864  0.89676420    -0.83100
O243        O  0.33030038  0.59526868  0.63044026    -0.82500
C244        C  0.37819001  0.67981104  0.69047741     0.96800
O245        O  0.36893072  0.65550561  0.69471036    -0.71700
O246        O  0.33486397  0.61403536  0.68547177    -0.75300
Al247      Al  0.37025078  0.62435397  0.67042884     1.49000
C248        C  0.31157862  0.62631394  0.68310095     0.92100
O249        O  0.31179142  0.67159440  0.61795884    -0.81500
O250        O  0.36956989  0.66591555  0.58993202    -0.75000
Al251      Al  0.32477815  0.63481149  0.62610856     1.90100
O252        O  0.34543502  0.69899932  0.63182016    -0.74100
O253        O  0.41087964  0.65349209  0.62488919    -0.74000
O254        O  0.38604851  0.68724838  0.66622644    -0.79600
O255        O  0.40862587  0.62961852  0.66356935    -0.77800
O256        O  0.35729238  0.64445865  0.64163985    -1.13900
O257        O  0.37253604  0.59134578  0.64834904    -0.73100
C258        C  0.35187757  0.58068193  0.63574370     0.97600
C259        C  0.32043698  0.69563921  0.62424847     0.94000
Al260      Al  0.37639776  0.67386162  0.62916789     1.55600
O261        O  0.30543180  0.63883286  0.66069773    -0.77800
C262        C  0.42270497  0.63914752  0.64366367     0.98100
C263        C  0.35668475  0.64650565  0.57712954     0.93000
O264        O  0.34052254  0.63038433  0.59017692    -0.83100
O265        O  0.09698989  0.16169734  0.62672390    -0.82500
C266        C  0.19643996  0.12548785  0.68220174     0.96800
O267        O  0.17164162  0.12075098  0.68980508    -0.71700
O268        O  0.14065574  0.16489676  0.69582102    -0.75300
Al269      Al  0.13600472  0.13187722  0.67500453     1.49000
C270        C  0.13191069  0.18904590  0.69004912     0.92100
O271        O  0.16830525  0.19806812  0.63138764    -0.81500
O272        O  0.15789350  0.12680870  0.59171274    -0.75000
Al273      Al  0.13360524  0.17820650  0.62952261     1.90100
O274        O  0.19493896  0.16451673  0.61430667    -0.74100
O275        O  0.16756424  0.09291967  0.63356856    -0.74000
O276        O  0.20156287  0.13257345  0.65738556    -0.79600
O277        O  0.12948012  0.09662796  0.65861110    -0.77800
O278        O  0.14908002  0.14683652  0.64340975    -1.13900
O279        O  0.09782686  0.13984658  0.66715164    -0.73100
C280        C  0.08449603  0.14860690  0.64603187     0.97600
C281        C  0.19166435  0.18963211  0.62205611     0.94000
Al282      Al  0.17785440  0.13058151  0.62573461     1.55600
O283        O  0.12486379  0.19515448  0.66524949    -0.77800
C284        C  0.14648888  0.08193177  0.64479448     0.98100
C285        C  0.14744025  0.14668301  0.57780881     0.93000
O286        O  0.13943169  0.16884986  0.59022549    -0.83100
O287        O  0.40388167  0.33504067  0.62889476    -0.82500
C288        C  0.30269354  0.37856017  0.67372473     0.96800
O289        O  0.32720008  0.38337265  0.68222848    -0.71700
O290        O  0.35391173  0.33719697  0.69431473    -0.75300
Al291      Al  0.36277060  0.36836850  0.67192763     1.49000
C292        C  0.36284657  0.31257447  0.69057088     0.92100
O293        O  0.33203451  0.30011553  0.63003947    -0.81500
O294        O  0.34678096  0.36781480  0.58733174    -0.75000
Al295      Al  0.36711021  0.31917185  0.62995589     1.90100
O296        O  0.30695190  0.33282704  0.60948284    -0.74100
O297        O  0.33607076  0.40514811  0.62596366    -0.74000
O298        O  0.29858825  0.36857383  0.64963571    -0.79600
O299        O  0.37295641  0.40119535  0.65309486    -0.77800
O300        O  0.35138712  0.35158153  0.64051279    -1.13900
O301        O  0.40104430  0.35753764  0.66893409    -0.73100
C302        C  0.41541840  0.34857155  0.64860278     0.97600
C303        C  0.30939512  0.30819112  0.61878354     0.94000
Al304      Al  0.32445339  0.36726133  0.61976983     1.55600
O305        O  0.37252700  0.30503622  0.66706491    -0.77800
C306        C  0.35760102  0.41563249  0.63721494     0.98100
C307        C  0.35947301  0.34737479  0.57632300     0.93000
O308        O  0.36511160  0.32580967  0.59049911    -0.83100
O309        O  0.40393591  0.16428746  0.86117662    -0.82500
C310        C  0.30301343  0.12568610  0.81095632     0.96800
O311        O  0.32767742  0.11954494  0.80369908    -0.71700
O312        O  0.36080913  0.16094003  0.79408623    -0.75300
Al313      Al  0.36360712  0.12953442  0.81783391     1.49000
C314        C  0.36721659  0.18606760  0.79853375     0.92100
O315        O  0.33257753  0.20138020  0.85820160    -0.81500
O316        O  0.34091126  0.13374062  0.90165877    -0.75000
Al317      Al  0.36699969  0.18034802  0.85928960     1.90100
O318        O  0.30450599  0.17024081  0.87570087    -0.74100
O319        O  0.33059364  0.09650431  0.86293958    -0.74000
O320        O  0.29790735  0.13466422  0.83527419    -0.79600
O321        O  0.36814997  0.09496885  0.83694080    -0.77800
O322        O  0.35081273  0.14823476  0.84814098    -1.13900
O323        O  0.40220282  0.13579048  0.82511682    -0.73100
C324        C  0.41611076  0.14822328  0.84382694     0.97600
C325        C  0.30876008  0.19477447  0.86725961     0.94000
Al326      Al  0.32133461  0.13496824  0.86718025     1.55600
O327        O  0.37311561  0.19453862  0.82284095    -0.77800
C328        C  0.35070263  0.08295296  0.85244650     0.98100
C329        C  0.35535476  0.15274613  0.91286291     0.93000
O330        O  0.36405099  0.17306035  0.89852559    -0.83100
O331        O  0.09950378  0.34811152  0.85831441    -0.82500
C332        C  0.19640966  0.38537909  0.80048842     0.96800
O333        O  0.17128771  0.38955518  0.79353930    -0.71700
O334        O  0.14286929  0.34395799  0.78854078    -0.75300
Al335      Al  0.13681284  0.37709752  0.80893266     1.49000
C336        C  0.13428448  0.31992653  0.79457460     0.92100
O337        O  0.17123089  0.31170860  0.85281652    -0.81500
O338        O  0.16168186  0.38312709  0.89185550    -0.75000
Al339      Al  0.13640570  0.33162264  0.85494309     1.90100
O340        O  0.19879636  0.34524411  0.86769179    -0.74100
O341        O  0.16790432  0.41711737  0.84940761    -0.74000
O342        O  0.20259402  0.37782890  0.82491388    -0.79600
O343        O  0.12911313  0.41225359  0.82530261    -0.77800
O344        O  0.15108694  0.36279082  0.84043113    -1.13900
O345        O  0.09912631  0.36781622  0.81693726    -0.73100
C346        C  0.08624069  0.35981970  0.83848471     0.97600
C347        C  0.19505464  0.31987942  0.86087579     0.94000
Al348      Al  0.18010929  0.37941967  0.85711968     1.55600
O349        O  0.12729400  0.31418318  0.81945124    -0.77800
C350        C  0.14611065  0.42755359  0.83836871     0.98100
C351        C  0.15087347  0.36375075  0.90583557     0.93000
O352        O  0.14271855  0.34162354  0.89370440    -0.83100
O353        O  0.91044215  0.88036122  0.34327319    -0.82500
C354        C  0.81797218  0.81490803  0.37800902     0.96800
O355        O  0.84318533  0.81201180  0.38552752    -0.71700
O356        O  0.87316297  0.80795478  0.34026537    -0.75300
Al357      Al  0.87670136  0.82988766  0.37241408     1.49000
C358        C  0.88090243  0.81377390  0.31580284     0.92100
O359        O  0.84288304  0.87114740  0.30410747    -0.81500
O360        O  0.84183319  0.90894227  0.37513276    -0.75000
Al361      Al  0.87528955  0.87449069  0.32587793     1.90100
O362        O  0.81074805  0.88178842  0.33501422    -0.74100
O363        O  0.83867456  0.86612584  0.40931043    -0.74000
O364        O  0.80985979  0.83753116  0.36716522    -0.79600
O365        O  0.88155903  0.84938583  0.40625682    -0.77800
O366        O  0.85999161  0.85917111  0.35616366    -1.13900
O367        O  0.91449121  0.83959604  0.36322985    -0.73100
C368        C  0.92551526  0.86169591  0.35422080     0.97600
C369        C  0.81814273  0.87802225  0.30983364     0.94000
Al370      Al  0.82801227  0.87247091  0.37046040     1.55600
O371        O  0.88655148  0.83884457  0.30907969    -0.77800
C372        C  0.86187762  0.85957047  0.42070246     0.98100
C373        C  0.85454787  0.92372980  0.35757150     0.93000
O374        O  0.86633462  0.91259548  0.33645248    -0.83100
O375        O  0.91444413  0.63724007  0.17092453    -0.82500
C376        C  0.82019426  0.69293689  0.12455256     0.96800
O377        O  0.84551201  0.69967389  0.12067709    -0.71700
O378        O  0.87532986  0.70692995  0.16527141    -0.75300
Al379      Al  0.88047263  0.68383636  0.13397568     1.49000
C380        C  0.88011864  0.70225535  0.19065234     0.92100
O381        O  0.84117362  0.64382146  0.19967793    -0.81500
O382        O  0.85603123  0.60194719  0.13071105    -0.75000
Al383      Al  0.87703147  0.64129255  0.18296151     1.90100
O384        O  0.81667247  0.62547542  0.16563141    -0.74100
O385        O  0.84862904  0.64317182  0.09519484    -0.74000
O386        O  0.81391602  0.66868148  0.13255411    -0.79600
O387        O  0.88809535  0.66536903  0.10003719    -0.77800
O388        O  0.86479841  0.65386533  0.14984056    -1.13900
O389        O  0.91834030  0.67424533  0.14424773    -0.73100
C390        C  0.92934518  0.65381494  0.15708741     0.97600
C391        C  0.81874351  0.63320255  0.19085357     0.94000
Al392      Al  0.83645692  0.63634929  0.13252087     1.55600
O393        O  0.88398576  0.67751553  0.19918340    -0.77800
C394        C  0.87067564  0.65297248  0.08481653     0.98100
C395        C  0.86690204  0.58925915  0.15117829     0.93000
O396        O  0.87275580  0.60223363  0.17365877    -0.83100
O397        O  0.60444902  0.87054200  0.15812951    -0.82500
C398        C  0.70855381  0.81730527  0.13261379     0.96800
O399        O  0.68418895  0.80827445  0.12862027    -0.71700
O400        O  0.65120194  0.80367196  0.17227260    -0.75300
Al401      Al  0.64760376  0.82194801  0.13707893     1.49000
C402        C  0.63904304  0.81113334  0.19456635     0.92100
O403        O  0.66933188  0.87105541  0.20323834    -0.81500
O404        O  0.66807458  0.90791037  0.13191184    -0.75000
Al405      Al  0.63805806  0.86995474  0.17935452     1.90100
O406        O  0.70171640  0.88433600  0.17345414    -0.74100
O407        O  0.67838813  0.86537698  0.09841640    -0.74000
O408        O  0.71222131  0.84236513  0.13979810    -0.79600
O409        O  0.64302942  0.83623742  0.10086755    -0.77800
O410        O  0.65789049  0.85517020  0.15107273    -1.13900
O411        O  0.60810816  0.82779315  0.14159528    -0.73100
C412        C  0.59357287  0.84950467  0.14642341     0.97600
C413        C  0.69373303  0.87961266  0.19833597     0.94000
Al414      Al  0.68744953  0.87338460  0.13711874     1.55600
O415        O  0.62886754  0.83545517  0.19688525    -0.77800
C416        C  0.65871139  0.85190232  0.08678305     0.98100
C417        C  0.65267366  0.92061032  0.14917251     0.93000
O418        O  0.64245585  0.90780199  0.16957716    -0.83100
O419        O  0.60620769  0.63789414  0.33428311    -0.82500
C420        C  0.69554258  0.70201381  0.37392182     0.96800
O421        O  0.67142386  0.70544155  0.36401243    -0.71700
O422        O  0.62927051  0.69559129  0.33138820    -0.75300
Al423      Al  0.64062585  0.68164788  0.36780239     1.49000
C424        C  0.63615884  0.68803983  0.30680941     0.92100
O425        O  0.68237462  0.62373360  0.30930514    -0.81500
O426        O  0.68652781  0.60162816  0.36344387    -0.75000
Al427      Al  0.64565966  0.63259099  0.32538150     1.90100
O428        O  0.71095473  0.64618658  0.33752032    -0.74100
O429        O  0.67359583  0.63478564  0.40487361    -0.74000
O430        O  0.70348674  0.67795050  0.38164475    -0.79600
O431        O  0.64850847  0.67351637  0.40680623    -0.77800
O432        O  0.65893022  0.65183792  0.35456331    -1.13900
O433        O  0.60732719  0.66210471  0.37324924    -0.73100
C434        C  0.59378169  0.64845073  0.35530775     0.97600
C435        C  0.70636522  0.63389003  0.31457395     0.94000
Al436      Al  0.69090778  0.64106793  0.37056182     1.55600
O437        O  0.64581524  0.66388430  0.30220867    -0.77800
C438        C  0.65877235  0.65189780  0.41849710     0.98100
C439        C  0.66545932  0.58717167  0.35672762     0.93000
O440        O  0.64430935  0.59873568  0.34578616    -0.83100
O441        O  0.64640231  0.09599477  0.16705534    -0.82500
C442        C  0.69442933  0.19753086  0.13706025     0.96800
O443        O  0.70234591  0.17459185  0.14753914    -0.71700
O444        O  0.69849359  0.12811150  0.17636283    -0.75300
Al445      Al  0.68590320  0.13917420  0.13986309     1.49000
C446        C  0.68858161  0.13239140  0.20054022     0.92100
O447        O  0.61757472  0.16594297  0.19428648    -0.81500
O448        O  0.59804229  0.16733486  0.13680851    -0.75000
Al449      Al  0.63381251  0.13275022  0.17771671     1.90100
O450        O  0.63366409  0.19983249  0.16808308    -0.74100
O451        O  0.63721587  0.16289761  0.09812531    -0.74000
O452        O  0.66994008  0.20005494  0.12731798    -0.79600
O453        O  0.68064639  0.14772703  0.10100738    -0.77800
O454        O  0.65187957  0.15052759  0.15050044    -1.13900
O455        O  0.67371281  0.10264130  0.13086237    -0.73100
C456        C  0.65964249  0.08653195  0.14607210     0.97600
C457        C  0.62320833  0.19155153  0.19079705     0.94000
Al458      Al  0.63597483  0.18001168  0.13397229     1.55600
O459        O  0.66301513  0.13775534  0.20376257    -0.77800
C460        C  0.65922742  0.15377761  0.08653196     0.98100
C461        C  0.58751309  0.14400202  0.14301637     0.93000
O462        O  0.60210305  0.12568643  0.15518485    -0.83100
O463        O  0.63053316  0.40767253  0.33866967    -0.82500
C464        C  0.69294275  0.30877858  0.36269176     0.96800
O465        O  0.69984756  0.33376763  0.36767247    -0.71700
O466        O  0.69997732  0.36596011  0.32371488    -0.75300
Al467      Al  0.68296641  0.36932466  0.35915961     1.49000
C468        C  0.69094837  0.37605917  0.30108770     0.92100
O469        O  0.63328008  0.34214284  0.29552135    -0.81500
O470        O  0.60049080  0.34250010  0.36922148    -0.75000
Al471      Al  0.63277254  0.37374778  0.31857487     1.90100
O472        O  0.62268982  0.30969306  0.32601445    -0.74100
O473        O  0.64591348  0.33456481  0.39959097    -0.74000
O474        O  0.66815413  0.30313862  0.35589316    -0.79600
O475        O  0.66972013  0.37365461  0.39601647    -0.77800
O476        O  0.65033068  0.35601414  0.34652891    -1.13900
O477        O  0.67390487  0.40844860  0.35354813    -0.73100
C478        C  0.65113775  0.42105225  0.34812573     0.97600
C479        C  0.62648119  0.31737992  0.30091001     0.94000
Al480      Al  0.63553167  0.32520654  0.36142801     1.55600
O481        O  0.66595559  0.38460472  0.29904547    -0.77800
C482        C  0.65772661  0.35555694  0.41083405     0.98100
C483        C  0.58518670  0.35627252  0.35268793     0.93000
O484        O  0.59545958  0.36670664  0.33083986    -0.83100
O485        O  0.88068849  0.10439026  0.33598358    -0.82500
C486        C  0.82306750  0.20269204  0.36916956     0.96800
O487        O  0.81612594  0.17795507  0.37540993    -0.71700
O488        O  0.80845052  0.14299298  0.33399202    -0.75300
Al489      Al  0.83179905  0.14175579  0.36656826     1.49000
C490        C  0.81393941  0.13217527  0.31051459     0.92100
O491        O  0.86768151  0.17067609  0.29558606    -0.81500
O492        O  0.91496766  0.16576390  0.36321956    -0.75000
Al493      Al  0.87363252  0.13822685  0.31735038     1.90100
O494        O  0.88766433  0.20028879  0.32469308    -0.74100
O495        O  0.87543397  0.17725234  0.40003604    -0.74000
O496        O  0.84745656  0.20793163  0.36078040    -0.79600
O497        O  0.85026905  0.13921064  0.40206490    -0.77800
O498        O  0.86168560  0.15506558  0.34863233    -1.13900
O499        O  0.84182687  0.10254158  0.36055109    -0.73100
C500        C  0.86312695  0.09053609  0.34978775     0.97600
C501        C  0.87829084  0.19433522  0.30053650     0.94000
Al502      Al  0.87986607  0.18517127  0.36123654     1.55600
O503        O  0.83864010  0.12543318  0.30455247    -0.77800
C504        C  0.86482043  0.15772908  0.41407355     0.98100
C505        C  0.92632660  0.15358158  0.34260158     0.93000
O506        O  0.91187392  0.14637535  0.32180500    -0.83100
O507        O  0.87430326  0.41169010  0.15434582    -0.82500
C508        C  0.81784878  0.31006510  0.13357562     0.96800
O509        O  0.80993768  0.33375113  0.12458973    -0.71700
O510        O  0.80541436  0.37077505  0.16448156    -0.75300
Al511      Al  0.82518736  0.37074669  0.12999155     1.49000
C512        C  0.81278985  0.38097188  0.18770415     0.92100
O513        O  0.87070286  0.34714886  0.19907330    -0.81500
O514        O  0.90874070  0.34710220  0.12634691    -0.75000
Al515      Al  0.87184908  0.37832553  0.17485700     1.90100
O516        O  0.88730210  0.31568251  0.16994378    -0.74100
O517        O  0.86524748  0.33311216  0.09506117    -0.74000
O518        O  0.84298787  0.30593942  0.14042227    -0.79600
O519        O  0.84039549  0.37169755  0.09287471    -0.77800
O520        O  0.85724447  0.35924331  0.14601423    -1.13900
O521        O  0.83370721  0.41016855  0.13268793    -0.73100
C522        C  0.85501355  0.42367963  0.14082671     0.97600
C523        C  0.88025228  0.32293482  0.19445590     0.94000
Al524      Al  0.87455433  0.32822456  0.13383800     1.55600
O525        O  0.83743728  0.38931998  0.19138266    -0.77800
C526        C  0.85378320  0.35223148  0.08074335     0.98100
C527        C  0.92198421  0.36196418  0.14379973     0.93000
O528        O  0.90986996  0.37175750  0.16519233    -0.83100
O529        O  0.17659994  0.09762710  0.36176849    -0.82500
C530        C  0.13630900  0.18370308  0.29507903     0.96800
O531        O  0.14511306  0.15895850  0.29223949    -0.71700
O532        O  0.17559475  0.11515246  0.30330140    -0.75300
Al533      Al  0.14099335  0.12940086  0.31816073     1.49000
C534        C  0.20067810  0.12241383  0.30736499     0.92100
O535        O  0.20336774  0.17337294  0.36881649    -0.81500
O536        O  0.15042129  0.17970253  0.39507037    -0.75000
Al537      Al  0.18667928  0.13671808  0.36368102     1.90100
O538        O  0.17356168  0.20107937  0.34727665    -0.74100
O539        O  0.10702412  0.16541606  0.36517625    -0.74000
O540        O  0.12838514  0.19237372  0.31888466    -0.79600
O541        O  0.10286692  0.13967507  0.32714183    -0.77800
O542        O  0.15624067  0.14911096  0.34600401    -1.13900
O543        O  0.13580202  0.09730769  0.34047733    -0.73100
C544        C  0.15483227  0.08471239  0.35386391     0.97600
C545        C  0.19740739  0.19667749  0.35752664     0.94000
Al546      Al  0.14110267  0.18183554  0.35582593     1.55600
O547        O  0.20764849  0.13435003  0.32996622    -0.77800
C548        C  0.09217650  0.15133462  0.34858371     0.98100
C549        C  0.15790720  0.15950695  0.41047034     0.93000
O550        O  0.16905127  0.13795491  0.39962006    -0.83100
O551        O  0.15941328  0.40578429  0.11812145    -0.82500
C552        C  0.13473985  0.30777876  0.18251984     0.96800
O553        O  0.12721464  0.33274571  0.18669136    -0.71700
O554        O  0.17076823  0.36589481  0.18852883    -0.75300
Al555      Al  0.13598830  0.36716826  0.16885620     1.49000
C556        C  0.19424743  0.37463047  0.18017996     0.92100
O557        O  0.20378393  0.33958240  0.12129536    -0.81500
O558        O  0.13293244  0.33347000  0.08756358    -0.75000
Al559      Al  0.17941138  0.37099086  0.12085084     1.90100
O560        O  0.17456336  0.30511874  0.11471791    -0.74100
O561        O  0.10058179  0.32823414  0.13102230    -0.74000
O562        O  0.14371230  0.30049172  0.15881854    -0.79600
O563        O  0.09982893  0.36943003  0.15193376    -0.77800
O564        O  0.15144363  0.35270973  0.13773565    -1.13900
O565        O  0.14062734  0.40556969  0.15971772    -0.73100
C566        C  0.14766352  0.41865409  0.13806982     0.97600
C567        C  0.19918737  0.31400859  0.11692274     0.94000
Al568      Al  0.13901363  0.31987523  0.12424632     1.55600
O569        O  0.19764259  0.38182912  0.15494327    -0.77800
C570        C  0.08741026  0.34993852  0.13891758     0.98100
C571        C  0.14794413  0.34894287  0.07260627     0.93000
O572        O  0.16732684  0.36324217  0.08341027    -0.83100
O573        O  0.34661336  0.09753255  0.12971332    -0.82500
C574        C  0.37704258  0.20070025  0.17997119     0.96800
O575        O  0.38661763  0.17686156  0.18670517    -0.71700
O576        O  0.34749719  0.14088508  0.19808639    -0.75300
Al577      Al  0.37823652  0.13964038  0.17326646     1.49000
C578        C  0.32353907  0.13049228  0.19489244     0.92100
O579        O  0.30368786  0.16378831  0.13592857    -0.81500
O580        O  0.37138362  0.16074556  0.09045187    -0.75000
Al581      Al  0.32726236  0.13185326  0.13348853     1.90100
O582        O  0.33147219  0.19367016  0.11558159    -0.74100
O583        O  0.40769212  0.17565431  0.12873609    -0.74000
O584        O  0.36600474  0.20441745  0.15625875    -0.79600
O585        O  0.41174012  0.13669393  0.15221064    -0.77800
O586        O  0.35789257  0.15071861  0.14378130    -1.13900
O587        O  0.37397109  0.10038789  0.16653273    -0.73100
C588        C  0.36289515  0.08618034  0.14711961     0.97600
C589        C  0.30758563  0.18707579  0.12438123     0.94000
Al590      Al  0.36826601  0.18092142  0.12447814     1.55600
O591        O  0.31518078  0.12312387  0.17082272    -0.77800
C592        C  0.42241707  0.15537067  0.13718341     0.98100
C593        C  0.35262377  0.14589106  0.07934573     0.93000
O594        O  0.33273679  0.13645365  0.09391024    -0.83100
O595        O  0.33692999  0.40660475  0.36494448    -0.82500
C596        C  0.37768965  0.31090686  0.30660878     0.96800
O597        O  0.37964110  0.33610578  0.29881342    -0.71700
O598        O  0.33300265  0.36486672  0.29510644    -0.75300
Al599      Al  0.36729595  0.37121508  0.31464816     1.49000
C600        C  0.30864312  0.37115417  0.30312252     0.92100
O601        O  0.30646853  0.33494871  0.36120312    -0.81500
O602        O  0.37785154  0.34827857  0.39782739    -0.75000
Al603      Al  0.32356040  0.36997998  0.36237798     1.90100
O604        O  0.34127844  0.30911286  0.37657285    -0.74100
O605        O  0.41015896  0.34168346  0.35442325    -0.74000
O606        O  0.37223814  0.30513405  0.33171203    -0.79600
O607        O  0.40324586  0.37945843  0.32945580    -0.77800
O608        O  0.35499082  0.35668374  0.34685205    -1.13900
O609        O  0.35733278  0.40942545  0.32386505    -0.73100
C610        C  0.34754324  0.42096146  0.34574506     0.97600
C611        C  0.31575185  0.31200990  0.37024499     0.94000
Al612      Al  0.37376740  0.32861349  0.36361128     1.55600
O613        O  0.30416393  0.37747467  0.32837165    -0.77800
C614        C  0.41936229  0.36359891  0.34316504     0.98100
C615        C  0.35846662  0.35968753  0.41164488     0.93000
O616        O  0.33537654  0.36564846  0.40023279    -0.83100
O617        O  0.17694291  0.63080056  0.08821865    -0.82500
C618        C  0.13776048  0.69183465  0.18263693     0.96800
O619        O  0.13136275  0.69615180  0.15730597    -0.71700
O620        O  0.17525285  0.70234286  0.12588504    -0.75300
Al621      Al  0.14358324  0.67930236  0.12289251     1.49000
C622        C  0.20005322  0.69691480  0.11876220     0.92100
O623        O  0.21259477  0.64010709  0.15760783    -0.81500
O624        O  0.14322440  0.59822649  0.15225435    -0.75000
Al625      Al  0.19247488  0.63634913  0.12404303     1.90100
O626        O  0.18145867  0.62480348  0.18717108    -0.74100
O627        O  0.10755340  0.64088320  0.15944370    -0.74000
O628        O  0.14786620  0.66851156  0.19005927    -0.79600
O629        O  0.10956204  0.66008141  0.11796474    -0.77800
O630        O  0.16077639  0.64994577  0.13872863    -1.13900
O631        O  0.15207927  0.66930564  0.08499187    -0.73100
C632        C  0.16347432  0.64818201  0.07370962     0.97600
C633        C  0.20639504  0.63133371  0.18154380     0.94000
Al634      Al  0.14625277  0.63436544  0.16950034     1.55600
O635        O  0.20782065  0.67196528  0.11416029    -0.77800
C636        C  0.09548184  0.64943417  0.13740690     0.98100
C637        C  0.16226777  0.58519827  0.13907122     0.93000
O638        O  0.18383635  0.59792909  0.13081619    -0.83100
O639        O  0.35687904  0.63502516  0.39841706    -0.82500
C640        C  0.38013563  0.69001172  0.29526088     0.96800
O641        O  0.38846729  0.69694885  0.31947821    -0.71700
O642        O  0.34637860  0.70410278  0.35458749    -0.75300
Al643      Al  0.38031393  0.68285474  0.35634181     1.49000
C644        C  0.32363121  0.69784519  0.36642198     0.92100
O645        O  0.30991862  0.63890305  0.33442109    -0.81500
O646        O  0.38156398  0.60023594  0.33186338    -0.75000
Al647      Al  0.33521283  0.63763963  0.36501404     1.90100
O648        O  0.33814792  0.62343726  0.30161068    -0.74100
O649        O  0.41356574  0.64158628  0.31908014    -0.74000
O650        O  0.36950677  0.66633039  0.29113147    -0.79600
O651        O  0.41584156  0.66453056  0.35901902    -0.77800
O652        O  0.36339687  0.65157575  0.34501244    -1.13900
O653        O  0.37600370  0.67644982  0.39596570    -0.73100
C654        C  0.36875964  0.65546458  0.41023770     0.97600
C655        C  0.31384006  0.62996526  0.30985297     0.94000
Al656      Al  0.37468894  0.63436734  0.31370203     1.55600
O657        O  0.31987407  0.67336312  0.37568471    -0.77800
C658        C  0.42754661  0.65032326  0.33982517     0.98100
C659        C  0.36460218  0.58658851  0.34637757     0.93000
O660        O  0.34417026  0.59881690  0.35814140    -0.83100
O661        O  0.18183585  0.86951925  0.39211960    -0.82500
C662        C  0.13778305  0.80287833  0.30821414     0.96800
O663        O  0.15023773  0.80019010  0.33131698    -0.71700
O664        O  0.18559037  0.81294376  0.37088458    -0.75300
Al665      Al  0.14739276  0.82404261  0.36260373     1.49000
C666        C  0.20853218  0.82039957  0.36005185     0.92100
O667        O  0.19640704  0.88394415  0.31495369    -0.81500
O668        O  0.13929910  0.90420909  0.31869773    -0.75000
Al669      Al  0.18573194  0.87459777  0.35245944     1.90100
O670        O  0.16607451  0.86145234  0.28896158    -0.74100
O671        O  0.10206584  0.86707923  0.33489118    -0.74000
O672        O  0.12690219  0.82618786  0.30147659    -0.79600
O673        O  0.10744522  0.82805908  0.35840403    -0.77800
O674        O  0.15603418  0.85428591  0.34288815    -1.13900
O675        O  0.14363835  0.84472957  0.39607736    -0.73100
C676        C  0.16205146  0.86017967  0.40684376     0.97600
C677        C  0.18965159  0.87269617  0.29189654     0.94000
Al678      Al  0.13526420  0.86404491  0.31343684     1.55600
O679        O  0.21049887  0.84398286  0.34865133    -0.77800
C680        C  0.09195297  0.84781251  0.34965937     0.98100
C681        C  0.14888431  0.91874686  0.33883476     0.93000
O682        O  0.16437506  0.90756851  0.35705896    -0.83100
O683        O  0.34454330  0.87318369  0.09048686    -0.82500
C684        C  0.38530188  0.81615372  0.18601216     0.96800
O685        O  0.39086987  0.80949452  0.16083303    -0.71700
O686        O  0.35000098  0.80208104  0.12582200    -0.75300
Al687      Al  0.38095621  0.82628870  0.12521520     1.49000
C688        C  0.32492544  0.80643627  0.11921988     0.92100
O689        O  0.31038814  0.86174856  0.16073312    -0.81500
O690        O  0.37723347  0.90825340  0.15199485    -0.75000
Al691      Al  0.32955065  0.86690100  0.12635967     1.90100
O692        O  0.34129993  0.88186572  0.18782662    -0.74100
O693        O  0.41455608  0.86916496  0.16120714    -0.74000
O694        O  0.37687752  0.84051495  0.19215671    -0.79600
O695        O  0.41559107  0.84528955  0.12214554    -0.77800
O696        O  0.36241047  0.85539877  0.14053734    -1.13900
O697        O  0.37385579  0.83764562  0.08691350    -0.73100
C698        C  0.36051097  0.85788708  0.07588380     0.97600
C699        C  0.31693665  0.87266294  0.18391670     0.94000
Al700      Al  0.37633816  0.87329044  0.17052896     1.55600
O701        O  0.31601331  0.83102824  0.11582060    -0.77800
C702        C  0.42782571  0.85969632  0.14050855     0.98100
C703        C  0.35641415  0.91998523  0.14061032     0.93000
O704        O  0.33528754  0.90585788  0.13348524    -0.83100
C705        C  0.29611309  0.87508432  0.20671235    -0.06000
C706        C  0.30352438  0.88751860  0.23247611    -0.05900
C707        C  0.28406090  0.88987231  0.25415389    -0.24100
C708        C  0.25679592  0.87987750  0.25046730     0.18100
C709        C  0.24912365  0.86728386  0.22470209     0.15400
C710        C  0.26879261  0.86497759  0.20301077    -0.19100
C711        C  0.22191211  0.85711678  0.22108344    -0.20900
C712        C  0.20245574  0.85938942  0.24277269    -0.13500
C713        C  0.20981576  0.87195292  0.26845965     0.03200
C714        C  0.23712810  0.88214202  0.27215179    -0.25600
H715        H  0.32444344  0.89545187  0.23592865     0.08300
H716        H  0.29033611  0.89951614  0.27378399     0.11900
H717        H  0.26281626  0.85529262  0.18329569     0.11800
H718        H  0.21570683  0.84728466  0.20152689     0.11500
H719        H  0.18166833  0.85105108  0.23948772     0.12100
H720        H  0.24321624  0.89152357  0.29197944     0.14000
C721        C  0.38309470  0.70963760  0.27151534    -0.06000
C722        C  0.38293512  0.69971441  0.24368039    -0.05900
C723        C  0.38515283  0.71831371  0.22118881    -0.24100
C724        C  0.38707781  0.74725334  0.22610314     0.18100
C725        C  0.38746363  0.75732186  0.25405844     0.15400
C726        C  0.38582085  0.73849431  0.27650322    -0.19100
C727        C  0.38879071  0.78616377  0.25918000    -0.20900
C728        C  0.38890263  0.80497389  0.23691734    -0.13500
C729        C  0.38806413  0.79542881  0.20896917     0.03200
C730        C  0.38774979  0.76637062  0.20366717    -0.25600
H731        H  0.38112023  0.67750996  0.23930021     0.08300
H732        H  0.38485200  0.71010836  0.19996830     0.11900
H733        H  0.38585541  0.74639784  0.29785975     0.11800
H734        H  0.38911271  0.79424482  0.28045172     0.11500
H735        H  0.38925972  0.82718935  0.24164810     0.12100
H736        H  0.38684154  0.75872445  0.18224552     0.14000
C737        C  0.30070001  0.71883322  0.36929142    -0.06000
C738        C  0.27593588  0.71154702  0.38332935    -0.05900
C739        C  0.25333575  0.73017317  0.38482375    -0.24100
C740        C  0.25492454  0.75655261  0.37229615     0.18100
C741        C  0.27977797  0.76440598  0.35842182     0.15400
C742        C  0.30255915  0.74554076  0.35705157    -0.19100
C743        C  0.28120761  0.79083654  0.34584236    -0.20900
C744        C  0.25819737  0.80912678  0.34678575    -0.13500
C745        C  0.23326474  0.80139302  0.36033407     0.03200
C746        C  0.23190422  0.77502442  0.37317475    -0.25600
H747        H  0.27381931  0.69117424  0.39294748     0.08300
H748        H  0.23447872  0.72380162  0.39556165     0.11900
H749        H  0.32143613  0.75144374  0.34605593     0.11800
H750        H  0.30001926  0.79727815  0.33506913     0.11500
H751        H  0.25984863  0.82926315  0.33657963     0.12100
H752        H  0.21284155  0.76871373  0.38360217     0.14000
C753        C  0.30555165  0.78259538  0.11615891    -0.06000
C754        C  0.31556408  0.75485718  0.11762041    -0.05900
C755        C  0.29698999  0.73237197  0.11699723    -0.24100
C756        C  0.26806145  0.73725645  0.11523663     0.18100
C757        C  0.25785498  0.76505389  0.11317188     0.15400
C758        C  0.27663924  0.78746528  0.11328638    -0.19100
C759        C  0.22895649  0.77006784  0.11192317    -0.20900
C760        C  0.21026553  0.74781888  0.11348415    -0.13500
C761        C  0.22011890  0.72010947  0.11586023     0.03200
C762        C  0.24913160  0.71491958  0.11626254    -0.25600
H763        H  0.33776049  0.75053578  0.11971156     0.08300
H764        H  0.30520876  0.71121302  0.11854395     0.11900
H765        H  0.26861989  0.80874448  0.11217744     0.11800
H766        H  0.22078693  0.79124225  0.11031147     0.11500
H767        H  0.18801357  0.75232638  0.11293979     0.12100
H768        H  0.25695118  0.69363514  0.11824767     0.14000
C769        C  0.13345889  0.71453904  0.20352456    -0.06000
C770        C  0.12193192  0.74044109  0.19525337    -0.05900
C771        C  0.11912200  0.76248475  0.21444447    -0.24100
C772        C  0.12792991  0.75913411  0.24226387     0.18100
C773        C  0.13903774  0.73303297  0.25096387     0.15400
C774        C  0.14160963  0.71089624  0.23161604    -0.19100
C775        C  0.14801810  0.72971122  0.27872336    -0.20900
C776        C  0.14685113  0.75226121  0.29745220    -0.13500
C777        C  0.13650369  0.77855154  0.28886548     0.03200
C778        C  0.12652917  0.78165321  0.26130329    -0.25600
H779        H  0.11538266  0.74383519  0.17377992     0.08300
H780        H  0.11050702  0.78230574  0.20739373     0.11900
H781        H  0.15051492  0.69106370  0.23831426     0.11800
H782        H  0.15649250  0.70984074  0.28580534     0.11500
H783        H  0.15455819  0.74920914  0.31859799     0.12100
H784        H  0.11853423  0.80178743  0.25438877     0.14000
C785        C  0.29006460  0.62788830  0.29002466    -0.06000
C786        C  0.26219505  0.62932233  0.29940120    -0.05900
C787        C  0.23995040  0.62901258  0.28018944    -0.24100
C788        C  0.24523447  0.62772976  0.25126575     0.18100
C789        C  0.27323728  0.62624691  0.24177766     0.15400
C790        C  0.29533000  0.62600348  0.26113072    -0.19100
C791        C  0.27882763  0.62567772  0.21301239    -0.20900
C792        C  0.25694237  0.62704379  0.19370690    -0.13500
C793        C  0.22895463  0.62858662  0.20270201     0.03200
C794        C  0.22316654  0.62853394  0.23162381    -0.25600
H795        H  0.25760966  0.63085157  0.32158235     0.08300
H796        H  0.21866624  0.63025458  0.28792315     0.11900
H797        H  0.31672123  0.62525004  0.25358088     0.11800
H798        H  0.30017610  0.62460530  0.20541459     0.11500
H799        H  0.26197229  0.62692780  0.17157624     0.12100
H800        H  0.20167896  0.62997213  0.23878439     0.14000
C801        C  0.34765772  0.45164774  0.34900016    -0.06000
C802        C  0.32625713  0.46485808  0.36445694    -0.05900
C803        C  0.32596867  0.49385491  0.36811834    -0.24100
C804        C  0.34732426  0.51013066  0.35672193     0.18100
C805        C  0.36922658  0.49699181  0.34150441     0.15400
C806        C  0.36906998  0.46783056  0.33741251    -0.19100
C807        C  0.39077822  0.51329519  0.33050029    -0.20900
C808        C  0.39004139  0.54240006  0.33353273    -0.13500
C809        C  0.36768916  0.55576905  0.34755321     0.03200
C810        C  0.34675997  0.53937038  0.35975389    -0.25600
H811        H  0.30948979  0.45271141  0.37347295     0.08300
H812        H  0.30901962  0.50354150  0.37981479     0.11900
H813        H  0.38575339  0.45770022  0.32567247     0.11800
H814        H  0.40788414  0.50360822  0.31903624     0.11500
H815        H  0.40653094  0.55451776  0.32400026     0.12100
H816        H  0.32943854  0.54937769  0.37063427     0.14000
C817        C  0.36800691  0.05568244  0.14555983    -0.06000
C818        C  0.39017946  0.04333870  0.16059298    -0.05900
C819        C  0.39342089  0.01423064  0.16119243    -0.24100
C820        C  0.37424477  0.99699289  0.14716615     0.18100
C821        C  0.35218030  0.00927109  0.13156920     0.15400
C822        C  0.34946193  0.03848640  0.13052122    -0.19100
C823        C  0.33261060  0.99213295  0.11806143    -0.20900
C824        C  0.33440365  0.96308352  0.12060156    -0.13500
C825        C  0.35600848  0.95061382  0.13638556     0.03200
C826        C  0.37621294  0.96772845  0.14920804    -0.25600
H827        H  0.40479612  0.05619933  0.17223063     0.08300
H828        H  0.41048237  0.00519476  0.17321854     0.11900
H829        H  0.33215907  0.04776705  0.11900083     0.11800
H830        H  0.31555541  0.00120698  0.10604930     0.11500
H831        H  0.31862676  0.95036709  0.11043463     0.12100
H832        H  0.39287754  0.95836625  0.16156094     0.14000
C833        C  0.38142864  0.28782976  0.28606249    -0.06000
C834        C  0.38955448  0.26093114  0.29500063    -0.05900
C835        C  0.39173355  0.23872411  0.27583164    -0.24100
C836        C  0.38526865  0.24288446  0.24744461     0.18100
C837        C  0.37717218  0.26989521  0.23827419     0.15400
C838        C  0.37568562  0.29222803  0.25752557    -0.19100
C839        C  0.37002547  0.27401348  0.21010243    -0.20900
C840        C  0.37044651  0.25156179  0.19123348    -0.13500
C841        C  0.37833616  0.22453323  0.20001733     0.03200
C842        C  0.38607398  0.22042172  0.22821326    -0.25600
H843        H  0.39417704  0.25706548  0.31688958     0.08300
H844        H  0.39796225  0.21819888  0.28330201     0.11900
H845        H  0.36911478  0.31281624  0.25046445     0.11800
H846        H  0.36366081  0.29453674  0.20272979     0.11500
H847        H  0.36433062  0.25537366  0.16970189     0.12100
H848        H  0.39195892  0.19967036  0.23536162     0.14000
C849        C  0.14323660  0.44949788  0.13733328    -0.06000
C850        C  0.12380636  0.46225072  0.15562386    -0.05900
C851        C  0.12215313  0.49144057  0.15821849    -0.24100
C852        C  0.14031188  0.50854237  0.14299974     0.18100
C853        C  0.15938347  0.49599663  0.12396349     0.15400
C854        C  0.16039674  0.46663276  0.12089006    -0.19100
C855        C  0.17797419  0.51296052  0.10918841    -0.20900
C856        C  0.17840191  0.54187393  0.11389512    -0.13500
C857        C  0.15999961  0.55464041  0.13320887     0.03200
C858        C  0.14047186  0.53781575  0.14724404    -0.25600
H859        H  0.11026945  0.44955700  0.16848712     0.08300
H860        H  0.10732123  0.50057999  0.17285405     0.11900
H861        H  0.17565018  0.45709926  0.10692956     0.11800
H862        H  0.19271215  0.50378517  0.09447755     0.11500
H863        H  0.19346039  0.55426514  0.10252649     0.12100
H864        H  0.12616065  0.54730652  0.16219148     0.14000
C865        C  0.28471434  0.37105978  0.28329666    -0.06000
C866        C  0.25736529  0.36828327  0.29374217    -0.05900
C867        C  0.23430791  0.36849776  0.27571695    -0.24100
C868        C  0.23804488  0.37181836  0.24683277     0.18100
C869        C  0.26541682  0.37473454  0.23599136     0.15400
C870        C  0.28863959  0.37403514  0.25425399    -0.19100
C871        C  0.26901085  0.37840279  0.20709320    -0.20900
C872        C  0.24579435  0.37901857  0.18915688    -0.13500
C873        C  0.21848737  0.37577188  0.19968403     0.03200
C874        C  0.21483310  0.37219508  0.22865645    -0.25600
H875        H  0.25377641  0.36571367  0.31599229     0.08300
H876        H  0.21352137  0.36617877  0.28441156     0.11900
H877        H  0.30961446  0.37629623  0.24597479     0.11800
H878        H  0.28977350  0.38070420  0.19833731     0.11500
H879        H  0.24929890  0.38152496  0.16689002     0.12100
H880        H  0.19395087  0.36963050  0.23707301     0.14000
C881        C  0.28420610  0.20705211  0.12106111    -0.06000
C882        C  0.25649822  0.19758595  0.11945325    -0.05900
C883        C  0.23438465  0.21668044  0.11660773    -0.24100
C884        C  0.23965997  0.24554285  0.11591877     0.18100
C885        C  0.26750820  0.25522558  0.11749524     0.15400
C886        C  0.28960643  0.23590744  0.11969683    -0.19100
C887        C  0.27275133  0.28408306  0.11749075    -0.20900
C888        C  0.25054688  0.30324676  0.11660835    -0.13500
C889        C  0.22275745  0.29386611  0.11536804     0.03200
C890        C  0.21751698  0.26489502  0.11451312    -0.25600
H891        H  0.25197636  0.17539916  0.12025381     0.08300
H892        H  0.21315145  0.20891374  0.11542838     0.11900
H893        H  0.31096093  0.24336093  0.12114223     0.11800
H894        H  0.29398625  0.29183356  0.11875588     0.11500
H895        H  0.25512614  0.32542981  0.11735162     0.12100
H896        H  0.19617302  0.25734699  0.11374141     0.14000
C897        C  0.15263051  0.05409586  0.35833000    -0.06000
C898        C  0.16978933  0.04060966  0.37812007    -0.05900
C899        C  0.17063585  0.01136905  0.37964095    -0.24100
C900        C  0.15483267  0.99505749  0.36093897     0.18100
C901        C  0.13695841  0.00832668  0.34139501     0.15400
C902        C  0.13556690  0.03775564  0.34057226    -0.19100
C903        C  0.12179005  0.99193897  0.32218326    -0.20900
C904        C  0.12508736  0.96274218  0.32167944    -0.13500
C905        C  0.14326336  0.94936725  0.34066905     0.03200
C906        C  0.15754662  0.96575339  0.36070986    -0.25600
H907        H  0.18307804  0.05269126  0.39200448     0.08300
H908        H  0.18443289  0.00150631  0.39477835     0.11900
H909        H  0.12245633  0.04787751  0.32498712     0.11800
H910        H  0.10799702  0.00175650  0.30701394     0.11500
H911        H  0.11377840  0.95067826  0.30611062     0.12100
H912        H  0.17171410  0.95583070  0.37547945     0.14000
C913        C  0.29652605  0.28822343  0.37236804    -0.06000
C914        C  0.30327707  0.26449519  0.38837585    -0.05900
C915        C  0.28525380  0.24153198  0.38880986    -0.24100
C916        C  0.26049757  0.24190511  0.37291442     0.18100
C917        C  0.25371978  0.26582276  0.35681801     0.15400
C918        C  0.27155892  0.28880021  0.35687280    -0.19100
C919        C  0.22932747  0.26637857  0.34061648    -0.20900
C920        C  0.21151767  0.24351999  0.34054305    -0.13500
C921        C  0.21769977  0.21969844  0.35675186     0.03200
C922        C  0.24239733  0.21887796  0.37276559    -0.25600
H923        H  0.32249028  0.26368922  0.40045962     0.08300
H924        H  0.29079854  0.22342223  0.40130234     0.11900
H925        H  0.26630511  0.30689943  0.34418557     0.11800
H926        H  0.22398029  0.28451147  0.32805095     0.11500
H927        H  0.19269212  0.24463751  0.32786505     0.12100
H928        H  0.24729123  0.20063014  0.38534098     0.14000
C929        C  0.22167949  0.11778093  0.28490436    -0.06000
C930        C  0.21351414  0.10644766  0.25886431    -0.05900
C931        C  0.23232162  0.10509768  0.23647695    -0.24100
C932        C  0.25964089  0.11520221  0.23961990     0.18100
C933        C  0.26842882  0.12560190  0.26598837     0.15400
C934        C  0.24949201  0.12666268  0.28847451    -0.19100
C935        C  0.29572395  0.13572755  0.26915694    -0.20900
C936        C  0.31377889  0.13662843  0.24618212    -0.13500
C937        C  0.30497282  0.12731391  0.21956942     0.03200
C938        C  0.27798886  0.11596850  0.21663345    -0.25600
H939        H  0.19227621  0.09936260  0.25549452     0.08300
H940        H  0.22524076  0.09689166  0.21647742     0.11900
H941        H  0.25614508  0.13538327  0.30841660     0.11800
H942        H  0.30289363  0.14361916  0.28925098     0.11500
H943        H  0.33449569  0.14524041  0.24916286     0.12100
H944        H  0.27094867  0.10849694  0.19632435     0.14000
C945        C  0.13293406  0.28736907  0.20587414    -0.06000
C946        C  0.12449117  0.29667042  0.23261890    -0.05900
C947        C  0.12294821  0.27812880  0.25506993    -0.24100
C948        C  0.12981436  0.24979734  0.25135946     0.18100
C949        C  0.13832078  0.24001334  0.22465122     0.15400
C950        C  0.13982566  0.25884561  0.20204098    -0.19100
C951        C  0.14536064  0.21161762  0.22116084    -0.20900
C952        C  0.14421102  0.19323086  0.24391191    -0.13500
C953        C  0.13585625  0.20281252  0.27060010     0.03200
C954        C  0.12856214  0.23120743  0.27404684    -0.25600
H955        H  0.11915966  0.31846772  0.23631174     0.08300
H956        H  0.11646578  0.28601270  0.27540788     0.11900
H957        H  0.14643113  0.25133913  0.18159520     0.11800
H958        H  0.15198977  0.20366783  0.20089893     0.11500
H959        H  0.15014687  0.17151736  0.24065009     0.12100
H960        H  0.12233234  0.23900310  0.29450795     0.14000
C961        C  0.05699345  0.35175498  0.13306104    -0.06000
C962        C  0.04431481  0.33171163  0.11546919    -0.05900
C963        C  0.01533278  0.33143254  0.11170625    -0.24100
C964        C  0.99839223  0.35099630  0.12571691     0.18100
C965        C  0.01098556  0.37201693  0.14246162     0.15400
C966        C  0.04021636  0.37249074  0.14574356    -0.19100
C967        C  0.99403748  0.39137513  0.15675471    -0.20900
C968        C  0.96496211  0.38881960  0.15596879    -0.13500
C969        C  0.95225568  0.36715772  0.14050238     0.03200
C970        C  0.96908421  0.34897539  0.12446691    -0.25600
H971        H  0.05677793  0.31576502  0.10501887     0.08300
H972        H  0.00611657  0.31530777  0.09861557     0.11900
H973        H  0.04972429  0.38817089  0.15918056     0.11800
H974        H  0.00326769  0.40777319  0.16948702     0.11500
H975        H  0.95239498  0.40332812  0.16823165     0.12100
H976        H  0.95950599  0.33218900  0.11250733     0.14000
C977        C  0.95672744  0.14819758  0.34155359    -0.06000
C978        C  0.96834665  0.13549849  0.31747882    -0.05900
C979        C  0.99714966  0.13201883  0.31486710    -0.24100
C980        C  0.01492372  0.14121690  0.33624820     0.18100
C981        C  0.00350849  0.15324868  0.36092403     0.15400
C982        C  0.97442241  0.15650133  0.36352531    -0.19100
C983        C  0.02144810  0.16264432  0.38216477    -0.20900
C984        C  0.05038511  0.16114622  0.37849928    -0.13500
C985        C  0.06183864  0.14995994  0.35365709     0.03200
C986        C  0.04395339  0.13940278  0.33289249    -0.25600
H987        H  0.95518942  0.12869036  0.30025317     0.08300
H988        H  0.00553093  0.12269511  0.29587071     0.11900
H989        H  0.96568538  0.16618164  0.38218937     0.11800
H990        H  0.01312825  0.17181185  0.40125702     0.11500
H991        H  0.06379992  0.16931439  0.39491104     0.12100
H992        H  0.05255328  0.13080147  0.31364621     0.14000
C993        C  0.88023052  0.21504330  0.27774601    -0.06000
C994        C  0.88121174  0.20599677  0.24969748    -0.05900
C995        C  0.88293881  0.22535567  0.22793619    -0.24100
C996        C  0.88312743  0.25415897  0.23380634     0.18100
C997        C  0.88191356  0.26353759  0.26195171     0.15400
C998        C  0.88087587  0.24390537  0.28377810    -0.19100
C999        C  0.88118709  0.29238352  0.26770324    -0.20900
C1000       C  0.88115574  0.31172965  0.24577297    -0.13500
C1001       C  0.88241828  0.30260777  0.21771948     0.03200
C1002       C  0.88379354  0.27371402  0.21194641    -0.25600
H1003       H  0.88088071  0.18385935  0.24459686     0.08300
H1004       H  0.88374835  0.21780281  0.20648808     0.11900
H1005       H  0.87985009  0.25106876  0.30536611     0.11800
H1006       H  0.88011604  0.29997424  0.28912660     0.11500
H1007       H  0.87994952  0.33387072  0.25075503     0.12100
H1008       H  0.88432270  0.26639635  0.19039314     0.14000
C1009       C  0.44963001  0.36985260  0.34515034    -0.06000
C1010       C  0.46212218  0.38833344  0.32614917    -0.05900
C1011       C  0.49124126  0.39109577  0.32525780    -0.24100
C1012       C  0.50835771  0.37549464  0.34343671     0.18100
C1013       C  0.49590453  0.35825055  0.36383095     0.15400
C1014       C  0.46665512  0.35561643  0.36463096    -0.19100
C1015       C  0.51296802  0.34290054  0.38222917    -0.20900
C1016       C  0.54208247  0.34330307  0.37938770    -0.13500
C1017       C  0.55470530  0.35908950  0.35813248     0.03200
C1018       C  0.53765795  0.37587938  0.34076406    -0.25600
H1019       H  0.44947181  0.39970749  0.31108762     0.08300
H1020       H  0.50040346  0.40466830  0.30968964     0.11900
H1021       H  0.45724042  0.34162931  0.37969507     0.11800
H1022       H  0.50377654  0.32980230  0.39818659     0.11500
H1023       H  0.55466289  0.33035919  0.39318835     0.12100
H1024       H  0.54708340  0.38840496  0.32447035     0.14000
C1025       C  0.71395487  0.28586195  0.36523693    -0.06000
C1026       C  0.70528737  0.25779175  0.36639605    -0.05900
C1027       C  0.72486878  0.23603412  0.36893996    -0.24100
C1028       C  0.75357429  0.24185555  0.36994455     0.18100
C1029       C  0.76259670  0.26997159  0.36871536     0.15400
C1030       C  0.74275354  0.29179011  0.36665824    -0.19100
C1031       C  0.79133845  0.27573585  0.36903402    -0.20900
C1032       C  0.81094277  0.25385533  0.36985342    -0.13500
C1033       C  0.80221847  0.22578831  0.37083584     0.03200
C1034       C  0.77339956  0.21999360  0.37140498    -0.25600
H1035       H  0.68326060  0.25262581  0.36550272     0.08300
H1036       H  0.71755802  0.21461796  0.36977915     0.11900
H1037       H  0.74975684  0.31331487  0.36565184     0.11800
H1038       H  0.79867196  0.29713816  0.36807884     0.11500
H1039       H  0.83300684  0.25890864  0.36940022     0.12100
H1040       H  0.76638187  0.19844986  0.37186978     0.14000
C1041       C  0.70972976  0.37781046  0.27676433    -0.06000
C1042       C  0.69886650  0.37691489  0.24937903    -0.05900
C1043       C  0.71679553  0.37742695  0.22627635    -0.24100
C1044       C  0.74582044  0.37935106  0.23024465     0.18100
C1045       C  0.75679686  0.38077871  0.25779182     0.15400
C1046       C  0.73874334  0.37960852  0.28082376    -0.19100
C1047       C  0.78567489  0.38334344  0.26189790    -0.20900
C1048       C  0.80361512  0.38425788  0.23894507    -0.13500
C1049       C  0.79307612  0.38221576  0.21145246     0.03200
C1050       C  0.76407496  0.37977183  0.20721673    -0.25600
H1051       H  0.67652293  0.37524672  0.24586304     0.08300
H1052       H  0.70797858  0.37633386  0.20535125     0.11900
H1053       H  0.74723705  0.38041350  0.30191918     0.11800
H1054       H  0.79440828  0.38452795  0.28285904     0.11500
H1055       H  0.82591392  0.38584053  0.24277541     0.12100
H1056       H  0.75576375  0.37819230  0.18610126     0.14000
C1057       C  0.55740225  0.13883413  0.13798820    -0.06000
C1058       C  0.54472080  0.11502279  0.14948238    -0.05900
C1059       C  0.51566577  0.11225155  0.14928240    -0.24100
C1060       C  0.49874156  0.13327984  0.13765255     0.18100
C1061       C  0.51128739  0.15640778  0.12435964     0.15400
C1062       C  0.54056572  0.15895643  0.12442901    -0.19100
C1063       C  0.49427066  0.17732222  0.11257711    -0.20900
C1064       C  0.46520287  0.17630049  0.11564192    -0.13500
C1065       C  0.45264925  0.15429491  0.13044085     0.03200
C1066       C  0.46954161  0.13225458  0.14040858    -0.25600
H1067       H  0.55717478  0.09908668  0.15985490     0.08300
H1068       H  0.50640192  0.09423028  0.15928239     0.11900
H1069       H  0.55008542  0.17729294  0.11524964     0.11800
H1070       H  0.50347767  0.19502683  0.10198096     0.11500
H1071       H  0.45264383  0.19333570  0.10733777     0.12100
H1072       H  0.46012451  0.11495219  0.15149895     0.14000
C1073       C  0.71391203  0.22153169  0.13536220    -0.06000
C1074       C  0.70524318  0.24663647  0.12252315    -0.05900
C1075       C  0.72364853  0.26908284  0.11982300    -0.24100
C1076       C  0.75115169  0.26692560  0.12989769     0.18100
C1077       C  0.76000859  0.24195300  0.14319886     0.15400
C1078       C  0.74137795  0.21946420  0.14587926    -0.19100
C1079       C  0.78744942  0.23979536  0.15339280    -0.20900
C1080       C  0.80606226  0.26194391  0.15010443    -0.13500
C1081       C  0.79767614  0.28678945  0.13657480     0.03200
C1082       C  0.76998381  0.28921601  0.12673588    -0.25600
H1083       H  0.68420911  0.24888794  0.11427175     0.08300
H1084       H  0.71641634  0.28805591  0.10964742     0.11900
H1085       H  0.74836610  0.20029867  0.15589042     0.11800
H1086       H  0.79458457  0.22091258  0.16380392     0.11500
H1087       H  0.82712219  0.25958393  0.15828081     0.12100
H1088       H  0.76314105  0.30829994  0.11648294     0.14000
C1089       C  0.70729859  0.13182342  0.22516791    -0.06000
C1090       C  0.69931304  0.14493997  0.25041963    -0.05900
C1091       C  0.71813882  0.14681837  0.27284588    -0.24100
C1092       C  0.74517121  0.13543127  0.27042118     0.18100
C1093       C  0.75289904  0.12133501  0.24540380     0.15400
C1094       C  0.73398334  0.11962363  0.22303104    -0.19100
C1095       C  0.77970434  0.10974274  0.24280756    -0.20900
C1096       C  0.79904823  0.11276176  0.26442273    -0.13500
C1097       C  0.79202884  0.12741820  0.28914503     0.03200
C1098       C  0.76481590  0.13838581  0.29222868    -0.25600
H1099       H  0.67880396  0.15454946  0.25251872     0.08300
H1100       H  0.71174134  0.15760813  0.29184406     0.11900
H1101       H  0.74025389  0.10926100  0.20373136     0.11800
H1102       H  0.78589562  0.09875128  0.22384690     0.11500
H1103       H  0.81979364  0.10392365  0.26150355     0.12100
H1104       H  0.75918125  0.14975208  0.31115095     0.14000
C1105       C  0.61839439  0.21202043  0.21369779    -0.06000
C1106       C  0.60890819  0.20344225  0.24017273    -0.05900
C1107       C  0.60715249  0.22260356  0.26244666    -0.24100
C1108       C  0.61502281  0.25059169  0.25863772     0.18100
C1109       C  0.62380482  0.25945236  0.23184647     0.15400
C1110       C  0.62528791  0.24024918  0.20964902    -0.19100
C1111       C  0.63174808  0.28725068  0.22775944    -0.20900
C1112       C  0.63176323  0.30602492  0.25016716    -0.13500
C1113       C  0.62384341  0.29743386  0.27719873     0.03200
C1114       C  0.61502696  0.26969083  0.28121236    -0.25600
H1115       H  0.60348996  0.18178358  0.24385612     0.08300
H1116       H  0.60025887  0.21539510  0.28277459     0.11900
H1117       H  0.63263415  0.24721212  0.18937199     0.11800
H1118       H  0.63848470  0.29436427  0.20733358     0.11500
H1119       H  0.63867843  0.32722731  0.24636151     0.12100
H1120       H  0.60883076  0.26282255  0.30189544     0.14000
C1121       C  0.56289610  0.64701409  0.35850711    -0.06000
C1122       C  0.54992955  0.66236459  0.38028376    -0.05900
C1123       C  0.52087788  0.66481074  0.38177214    -0.24100
C1124       C  0.50402349  0.65195258  0.36154341     0.18100
C1125       C  0.51658519  0.63549242  0.34018048     0.15400
C1126       C  0.54596874  0.63303479  0.33881762    -0.19100
C1127       C  0.49953532  0.62261797  0.32001360    -0.20900
C1128       C  0.47054842  0.62695728  0.32035125    -0.13500
C1129       C  0.45799278  0.64417514  0.34092383     0.03200
C1130       C  0.47488977  0.65604883  0.36188565    -0.25600
H1131       H  0.56229473  0.67340831  0.39580213     0.08300
H1132       H  0.51163583  0.67739964  0.39835951     0.11900
H1133       H  0.55560368  0.62116719  0.32192698     0.11800
H1134       H  0.50865850  0.60972806  0.30359922     0.11500
H1135       H  0.45800018  0.61718925  0.30413407     0.12100
H1136       H  0.46551040  0.66916901  0.37799336     0.14000
C1137       C  0.66623371  0.55638077  0.36025512    -0.06000
C1138       C  0.69058656  0.54283700  0.37008964    -0.05900
C1139       C  0.69224064  0.51357202  0.37085537    -0.24100
C1140       C  0.66956968  0.49732655  0.36178876     0.18100
C1141       C  0.64475643  0.51080836  0.35261584     0.15400
C1142       C  0.64320704  0.54013108  0.35202464    -0.19100
C1143       C  0.62204687  0.49476763  0.34352675    -0.20900
C1144       C  0.62402767  0.46562713  0.34291365    -0.13500
C1145       C  0.64876747  0.45185947  0.35135977     0.03200
C1146       C  0.67143239  0.46790408  0.36114539    -0.25600
H1147       H  0.70864122  0.55485246  0.37659274     0.08300
H1148       H  0.71141584  0.50366246  0.37805376     0.11900
H1149       H  0.62427779  0.55025666  0.34443859     0.11800
H1150       H  0.60286915  0.50477226  0.33645497     0.11500
H1151       H  0.60625208  0.45387535  0.33523411     0.12100
H1152       H  0.69065164  0.45759367  0.36766904     0.14000
C1153       C  0.45824267  0.86465654  0.13895205    -0.06000
C1154       C  0.46988394  0.88768991  0.15314458    -0.05900
C1155       C  0.49885925  0.89048448  0.15549796    -0.24100
C1156       C  0.51671461  0.86996280  0.14419694     0.18100
C1157       C  0.50526162  0.84716853  0.12907283     0.15400
C1158       C  0.47608223  0.84490008  0.12613745    -0.19100
C1159       C  0.52313684  0.82638521  0.11825707    -0.20900
C1160       C  0.55192717  0.82755513  0.12335795    -0.13500
C1161       C  0.56343403  0.84968801  0.13909634     0.03200
C1162       C  0.54571203  0.87125896  0.14880266    -0.25600
H1163       H  0.45649300  0.90322259  0.16306714     0.08300
H1164       H  0.50725723  0.90815007  0.16704868     0.11900
H1165       H  0.46726638  0.82692029  0.11539730     0.11800
H1166       H  0.51477934  0.80880944  0.10654140     0.11500
H1167       H  0.56515059  0.81081857  0.11536472     0.12100
H1168       H  0.55429875  0.88847137  0.16091360     0.14000
C1169       C  0.64720865  0.95100814  0.14678190    -0.06000
C1170       C  0.62614052  0.96339485  0.16336276    -0.05900
C1171       C  0.62316510  0.99240431  0.16486116    -0.24100
C1172       C  0.64136346  0.00964568  0.14999461     0.18100
C1173       C  0.66181081  0.99752605  0.13218126     0.15400
C1174       C  0.66445062  0.96819846  0.13045561    -0.19100
C1175       C  0.67998148  0.01499926  0.11738712    -0.20900
C1176       C  0.67870349  0.04406916  0.12119251    -0.13500
C1177       C  0.65923730  0.05614182  0.13984920     0.03200
C1178       C  0.64011350  0.03877388  0.15357509    -0.25600
H1179       H  0.61239892  0.95062465  0.17592621     0.08300
H1180       H  0.60723060  0.00135746  0.17841573     0.11900
H1181       H  0.68079719  0.95888039  0.11763892     0.11800
H1182       H  0.69568516  0.00615947  0.10350104     0.11500
H1183       H  0.69354722  0.05703262  0.11019050     0.12100
H1184       H  0.62474813  0.04784647  0.16772077     0.14000
C1185       C  0.63392004  0.70751000  0.28288392    -0.06000
C1186       C  0.63815851  0.69719097  0.25550535    -0.05900
C1187       C  0.63956916  0.71533992  0.23279432    -0.24100
C1188       C  0.63674357  0.74423557  0.23693140     0.18100
C1189       C  0.63150956  0.75488878  0.26418970     0.15400
C1190       C  0.63003505  0.73644758  0.28703193    -0.19100
C1191       C  0.62842489  0.78384754  0.26814942    -0.20900
C1192       C  0.63071132  0.80201583  0.24540806    -0.13500
C1193       C  0.63637958  0.79160937  0.21832974     0.03200
C1194       C  0.63935898  0.76262849  0.21425907    -0.25600
H1195       H  0.64105887  0.67497765  0.25163774     0.08300
H1196       H  0.64335944  0.70678453  0.21204809     0.11900
H1197       H  0.62684810  0.74467369  0.30802047     0.11800
H1198       H  0.62440931  0.79245931  0.28882743     0.11500
H1199       H  0.62841662  0.82432647  0.24909345     0.12100
H1200       H  0.64354367  0.75438324  0.19344958     0.14000
C1201       C  0.87143471  0.55864195  0.14935910    -0.06000
C1202       C  0.89009830  0.54515464  0.16775111    -0.05900
C1203       C  0.89222342  0.51594207  0.16800372    -0.24100
C1204       C  0.87524467  0.49972747  0.15030232     0.18100
C1205       C  0.85687545  0.51308606  0.13125790     0.15400
C1206       C  0.85548867  0.54245768  0.13053571    -0.19100
C1207       C  0.83931316  0.49683791  0.11415344    -0.20900
C1208       C  0.83910727  0.46765514  0.11671746    -0.13500
C1209       C  0.85691914  0.45420749  0.13595954     0.03200
C1210       C  0.87548015  0.47042001  0.15217795    -0.25600
H1211       H  0.90272232  0.55721177  0.18227292     0.08300
H1212       H  0.90646636  0.50601770  0.18269060     0.11900
H1213       H  0.84088973  0.55265160  0.11636924     0.11800
H1214       H  0.82510375  0.50674818  0.09942795     0.11500
H1215       H  0.82472257  0.45562723  0.10394187     0.12100
H1216       H  0.88920616  0.46034728  0.16726952     0.14000
C1217       C  0.96009069  0.64931815  0.15640807    -0.06000
C1218       C  0.97335483  0.63420018  0.17797839    -0.05900
C1219       C  0.00238256  0.63027293  0.17805988    -0.24100
C1220       C  0.01873947  0.64105015  0.15634596     0.18100
C1221       C  0.00559264  0.65570377  0.13416569     0.15400
C1222       C  0.97640311  0.65997323  0.13445264    -0.19100
C1223       C  0.02192619  0.66610244  0.11224739    -0.20900
C1224       C  0.05103017  0.66280359  0.11271535    -0.13500
C1225       C  0.06447511  0.64914188  0.13517108     0.03200
C1226       C  0.04804041  0.63788949  0.15673763    -0.25600
H1227       H  0.96127858  0.62579179  0.19513829     0.08300
H1228       H  0.01204846  0.61893359  0.19520848     0.11900
H1229       H  0.96638217  0.67141947  0.11756018     0.11800
H1230       H  0.01224526  0.67723739  0.09497358     0.11500
H1231       H  0.06309478  0.67180211  0.09585658     0.12100
H1232       H  0.05805740  0.62734634  0.17420578     0.14000
C1233       C  0.79473810  0.62984477  0.21018994    -0.06000
C1234       C  0.76782147  0.62346897  0.19999561    -0.05900
C1235       C  0.74500209  0.62166333  0.21833108    -0.24100
C1236       C  0.74870384  0.62613117  0.24721241     0.18100
C1237       C  0.77586056  0.63186958  0.25758267     0.15400
C1238       C  0.79854453  0.63369361  0.23912482    -0.19100
C1239       C  0.77994623  0.63627628  0.28626704    -0.20900
C1240       C  0.75727760  0.63605325  0.30449541    -0.13500
C1241       C  0.72993199  0.63132384  0.29456241     0.03200
C1242       C  0.72580221  0.62567659  0.26585071    -0.25600
H1243       H  0.76430126  0.62038632  0.17775953     0.08300
H1244       H  0.72443164  0.61717590  0.20987820     0.11900
H1245       H  0.81917919  0.63842735  0.24732982     0.11800
H1246       H  0.80064718  0.64045269  0.29458092     0.11500
H1247       H  0.76120227  0.64004273  0.32652903     0.12100
H1248       H  0.70485540  0.62193511  0.25794579     0.14000
C1249       C  0.79736837  0.71356470  0.12034420    -0.06000
C1250       C  0.77009371  0.70414521  0.11473941    -0.05900
C1251       C  0.74756279  0.72290674  0.11417113    -0.24100
C1252       C  0.75180286  0.75140156  0.11976188     0.18100
C1253       C  0.77925292  0.76130335  0.12453175     0.15400
C1254       C  0.80196393  0.74236382  0.12437828    -0.19100
C1255       C  0.78333309  0.78978292  0.13049765    -0.20900
C1256       C  0.76039399  0.80804887  0.13274123    -0.13500
C1257       C  0.73294571  0.79824406  0.12884387     0.03200
C1258       C  0.72892177  0.76992636  0.12167793    -0.25600
H1259       H  0.76609523  0.68206933  0.11136133     0.08300
H1260       H  0.72670032  0.71497210  0.11030329     0.11900
H1261       H  0.82290107  0.74978530  0.12891492     0.11800
H1262       H  0.80420317  0.79780413  0.13410989     0.11500
H1263       H  0.76414272  0.82981270  0.13795887     0.12100
H1264       H  0.70792335  0.76207024  0.11838152     0.14000
C1265       C  0.06151762  0.84760389  0.35567571    -0.06000
C1266       C  0.04909380  0.82370666  0.36727331    -0.05900
C1267       C  0.02008186  0.82228818  0.37061055    -0.24100
C1268       C  0.00291167  0.84477849  0.36248141     0.18100
C1269       C  0.01519437  0.86927417  0.35163370     0.15400
C1270       C  0.04438741  0.87056682  0.34835371    -0.19100
C1271       C  0.99799364  0.89176360  0.34352955    -0.20900
C1272       C  0.96886179  0.88963533  0.34523297    -0.13500
C1273       C  0.95635896  0.86503787  0.35520688     0.03200
C1274       C  0.97364370  0.84286293  0.36432074    -0.25600
H1275       H  0.06174645  0.80572636  0.37309726     0.08300
H1276       H  0.01103812  0.80337519  0.37904178     0.11900
H1277       H  0.05366862  0.88918324  0.33950407     0.11800
H1278       H  0.00703612  0.91076380  0.33529310     0.11500
H1279       H  0.95609160  0.90706602  0.33814225     0.12100
H1280       H  0.96434742  0.82375590  0.37204026     0.14000
C1281       C  0.85449946  0.95455140  0.36137407    -0.06000
C1282       C  0.83506131  0.96743048  0.37957464    -0.05900
C1283       C  0.83337273  0.99661308  0.38183129    -0.24100
C1284       C  0.85128931  0.01352083  0.36614987     0.18100
C1285       C  0.87147565  0.00073580  0.34847161     0.15400
C1286       C  0.87282770  0.97141931  0.34604350    -0.19100
C1287       C  0.88973159  0.01749471  0.33313885    -0.20900
C1288       C  0.88758825  0.04661130  0.33466628    -0.13500
C1289       C  0.86695191  0.05970306  0.35135215     0.03200
C1290       C  0.84904315  0.04293423  0.36739657    -0.25600
H1291       H  0.82060460  0.95493363  0.39159235     0.08300
H1292       H  0.81783311  0.00594502  0.39558798     0.11900
H1293       H  0.88799372  0.96176275  0.33206818     0.11800
H1294       H  0.90542900  0.00808988  0.31960750     0.11500
H1295       H  0.90167224  0.05888905  0.32199932     0.12100
H1296       H  0.83307407  0.05269157  0.38036402     0.14000
C1297       C  0.71446307  0.72642784  0.37596775    -0.06000
C1298       C  0.70525798  0.75283866  0.36651588    -0.05900
C1299       C  0.72334430  0.77565312  0.36628396    -0.24100
C1300       C  0.75107656  0.77253662  0.37538100     0.18100
C1301       C  0.76043053  0.74635940  0.38567491     0.15400
C1302       C  0.74202252  0.72349581  0.38606710    -0.19100
C1303       C  0.78826632  0.74333812  0.39465196    -0.20900
C1304       C  0.80685434  0.76575703  0.39263923    -0.13500
C1305       C  0.79791303  0.79167728  0.38178272     0.03200
C1306       C  0.76976918  0.79499357  0.37364658    -0.25600
H1307       H  0.68412603  0.75580259  0.35873056     0.08300
H1308       H  0.71578845  0.79559522  0.35842906     0.11900
H1309       H  0.74937769  0.70331172  0.39349364     0.11800
H1310       H  0.79581684  0.72347971  0.40270467     0.11500
H1311       H  0.82837948  0.76264240  0.39916602     0.12100
H1312       H  0.76250707  0.81487079  0.36534390     0.14000
C1313       C  0.79808571  0.88179536  0.28641315    -0.06000
C1314       C  0.80816012  0.88370541  0.25877398    -0.05900
C1315       C  0.78972818  0.88573704  0.23613695    -0.24100
C1316       C  0.76079393  0.88552385  0.24060794     0.18100
C1317       C  0.75036573  0.88427883  0.26832014     0.15400
C1318       C  0.76907114  0.88276872  0.29108845    -0.19100
C1319       C  0.72140195  0.88359163  0.27270316    -0.20900
C1320       C  0.70302975  0.88294235  0.24988331    -0.13500
C1321       C  0.71321491  0.88339242  0.22222186     0.03200
C1322       C  0.74217419  0.88546089  0.21777422    -0.25600
H1323       H  0.83043408  0.88336060  0.25456550     0.08300
H1324       H  0.79812169  0.88677993  0.21508575     0.11900
H1325       H  0.76105466  0.88134180  0.31227116     0.11800
H1326       H  0.71297687  0.88273668  0.29374876     0.11500
H1327       H  0.68078046  0.88154511  0.25391980     0.12100
H1328       H  0.75030661  0.88572047  0.19657678     0.14000
C1329       C  0.88128993  0.72625550  0.21031764    -0.06000
C1330       C  0.88111836  0.75389819  0.20010338    -0.05900
C1331       C  0.88202169  0.77674176  0.21852406    -0.24100
C1332       C  0.88289495  0.77238616  0.24752867     0.18100
C1333       C  0.88296729  0.74465125  0.25792217     0.15400
C1334       C  0.88232208  0.72183786  0.23931954    -0.19100
C1335       C  0.88337979  0.74010241  0.28682058    -0.20900
C1336       C  0.88335706  0.76273655  0.30532440    -0.13500
C1337       C  0.88311439  0.79046184  0.29538897     0.03200
C1338       C  0.88321846  0.79519272  0.26634526    -0.25600
H1339       H  0.88034466  0.75791151  0.17778712     0.08300
H1340       H  0.88185111  0.79777804  0.21009203     0.11900
H1341       H  0.88227726  0.70066826  0.24745541     0.11800
H1342       H  0.88340057  0.71902169  0.29515026     0.11500
H1343       H  0.88331629  0.75845196  0.32760067     0.12100
H1344       H  0.88272869  0.81645102  0.25845560     0.14000
C1345       C  0.14371525  0.34911430  0.04182969    -0.06000
C1346       C  0.13125766  0.32599284  0.02847774    -0.05900
C1347       C  0.12946313  0.32455157  0.99925576    -0.24100
C1348       C  0.13974300  0.34639584  0.98277834     0.18100
C1349       C  0.15163274  0.37011176  0.99598322     0.15400
C1350       C  0.15375192  0.37123333  0.02538714    -0.19100
C1351       C  0.16157500  0.39210780  0.97951490    -0.20900
C1352       C  0.16034464  0.39037877  0.95027557    -0.13500
C1353       C  0.14929010  0.36654645  0.93682776     0.03200
C1354       C  0.13871626  0.34471847  0.95334294    -0.25600
H1355       H  0.12363136  0.30854867  0.04063854     0.08300
H1356       H  0.12027552  0.30620590  0.98953947     0.11900
H1357       H  0.16338796  0.38917614  0.03544782     0.11800
H1358       H  0.17064174  0.41051414  0.98923357     0.11500
H1359       H  0.16869305  0.40751675  0.93816765     0.12100
H1360       H  0.13018543  0.32619259  0.94333869     0.14000
C1361       C  0.36121192  0.15192039  0.94334857    -0.06000
C1362       C  0.38002306  0.17098723  0.95553853    -0.05900
C1363       C  0.38357599  0.17216597  0.98459707    -0.24100
C1364       C  0.36811028  0.15454431  0.00203273     0.18100
C1365       C  0.34967048  0.13479394  0.99000221     0.15400
C1366       C  0.34662088  0.13335135  0.96075174    -0.19100
C1367       C  0.33379845  0.11755435  0.00747726    -0.20900
C1368       C  0.33535169  0.12060966  0.03659406    -0.13500
C1369       C  0.35312601  0.14064934  0.04875886     0.03200
C1370       C  0.37000241  0.15707540  0.03129111    -0.25600
H1371       H  0.39164190  0.18540113  0.94261814     0.08300
H1372       H  0.39784757  0.18739371  0.99346465     0.11900
H1373       H  0.33198757  0.11859179  0.95165525     0.11800
H1374       H  0.31959599  0.10225617  0.99862199     0.11500
H1375       H  0.32226039  0.10760243  0.04959885     0.12100
H1376       H  0.38370532  0.17270616  0.04039150     0.14000
C1377       C  0.21920253  0.29995230  0.86188976    -0.06000
C1378       C  0.24674905  0.31011280  0.86027870    -0.05900
C1379       C  0.26977522  0.29175847  0.86060390    -0.24100
C1380       C  0.26585601  0.26277960  0.86304181     0.18100
C1381       C  0.23828173  0.25229001  0.86481609     0.15400
C1382       C  0.21515886  0.27084221  0.86381554    -0.19100
C1383       C  0.23430924  0.22340817  0.86778232    -0.20900
C1384       C  0.25729830  0.20513763  0.86915007    -0.13500
C1385       C  0.28490323  0.21514797  0.86715139     0.03200
C1386       C  0.28898253  0.24415075  0.86387307    -0.25600
H1387       H  0.25051162  0.33237363  0.85838128     0.08300
H1388       H  0.29067998  0.30027959  0.85914284     0.11900
H1389       H  0.19407950  0.26267738  0.86501957     0.11800
H1390       H  0.21338513  0.21491216  0.86915653     0.11500
H1391       H  0.25337479  0.18293065  0.87129530     0.12100
H1392       H  0.31006135  0.25221986  0.86219578     0.14000
C1393       C  0.36660142  0.34825897  0.54625068    -0.06000
C1394       C  0.38211844  0.32646212  0.53365970    -0.05900
C1395       C  0.38633013  0.32599310  0.50467936    -0.24100
C1396       C  0.37464975  0.34704502  0.48781652     0.18100
C1397       C  0.35973635  0.36947168  0.50043754     0.15400
C1398       C  0.35622959  0.37016091  0.52953711    -0.19100
C1399       C  0.34723223  0.39007215  0.48364456    -0.20900
C1400       C  0.34793891  0.38751453  0.45453157    -0.13500
C1401       C  0.36187566  0.36481792  0.44182729     0.03200
C1402       C  0.37619902  0.34523494  0.45850712    -0.25600
H1403       H  0.39047146  0.30943329  0.54613356     0.08300
H1404       H  0.39782206  0.30865328  0.49536923     0.11900
H1405       H  0.34418932  0.38707646  0.53896771     0.11800
H1406       H  0.33580630  0.40742818  0.49300710     0.11500
H1407       H  0.33691769  0.40285204  0.44189039     0.12100
H1408       H  0.38673046  0.32752468  0.44872481     0.14000
C1409       C  0.36244687  0.29240030  0.71387845    -0.06000
C1410       C  0.35736837  0.30155919  0.74145912    -0.05900
C1411       C  0.35762602  0.28252893  0.76358329    -0.24100
C1412       C  0.36267791  0.25400075  0.75842639     0.18100
C1413       C  0.36728648  0.24450506  0.73069371     0.15400
C1414       C  0.36734210  0.26377335  0.70865628    -0.19100
C1415       C  0.37165451  0.21587171  0.72545477    -0.20900
C1416       C  0.37147647  0.19677760  0.74752791    -0.13500
C1417       C  0.36744720  0.20610593  0.77518866     0.03200
C1418       C  0.36307503  0.23478590  0.78050988    -0.25600
H1419       H  0.35351275  0.32350908  0.74598541     0.08300
H1420       H  0.35388098  0.29011537  0.78470622     0.11900
H1421       H  0.37100869  0.25642803  0.68742248     0.11800
H1422       H  0.37508932  0.20824151  0.70429674     0.11500
H1423       H  0.37481262  0.17473974  0.74302787     0.12100
H1424       H  0.35951642  0.24208203  0.80178652     0.14000
C1425       C  0.21875171  0.38888523  0.77970736    -0.06000
C1426       C  0.24643400  0.39320788  0.78858039    -0.05900
C1427       C  0.26804128  0.39454725  0.76908697    -0.24100
C1428       C  0.26235424  0.39089630  0.74048943     0.18100
C1429       C  0.23451138  0.38693390  0.73127383     0.15400
C1430       C  0.21279004  0.38641513  0.75094230    -0.19100
C1431       C  0.22907072  0.38239996  0.70270339    -0.20900
C1432       C  0.25118176  0.38055001  0.68362927    -0.13500
C1433       C  0.27896451  0.38375561  0.69280949     0.03200
C1434       C  0.28425990  0.38982686  0.72116241    -0.25600
H1435       H  0.25140224  0.39528956  0.81066016     0.08300
H1436       H  0.28929581  0.39757081  0.77644759     0.11900
H1437       H  0.19147992  0.38279670  0.74398812     0.11800
H1438       H  0.20784670  0.37933606  0.69527788     0.11500
H1439       H  0.24660042  0.37595641  0.66184238     0.12100
H1440       H  0.30560011  0.39227686  0.72853798     0.14000
C1441       C  0.15372293  0.16155599  0.44136082    -0.06000
C1442       C  0.14595249  0.18725083  0.45388515    -0.05900
C1443       C  0.14206663  0.18944272  0.48293279    -0.24100
C1444       C  0.14563607  0.16592456  0.50014283     0.18100
C1445       C  0.15311385  0.13994888  0.48774949     0.15400
C1446       C  0.15725802  0.13795969  0.45858305    -0.19100
C1447       C  0.15654565  0.11635554  0.50476476    -0.20900
C1448       C  0.15337046  0.11851358  0.53379951    -0.13500
C1449       C  0.14667459  0.14431258  0.54664901     0.03200
C1450       C  0.14237539  0.16796434  0.52951257    -0.25600
H1451       H  0.14307715  0.20581522  0.44121520     0.08300
H1452       H  0.13634661  0.20957149  0.49193475     0.11900
H1453       H  0.16310587  0.11798298  0.44929758     0.11800
H1454       H  0.16214187  0.09623977  0.49565418     0.11500
H1455       H  0.15685484  0.09994619  0.54632152     0.12100
H1456       H  0.13745275  0.18807053  0.53903737     0.14000
C1457       C  0.13217896  0.29870662  0.77201514    -0.06000
C1458       C  0.13213299  0.30719443  0.74381165    -0.05900
C1459       C  0.13086497  0.28748262  0.72215214    -0.24100
C1460       C  0.13000679  0.25885216  0.72825961     0.18100
C1461       C  0.13007011  0.25004622  0.75654841     0.15400
C1462       C  0.13084309  0.27003185  0.77825479    -0.19100
C1463       C  0.12987388  0.22137591  0.76262064    -0.20900
C1464       C  0.13011250  0.20163532  0.74091534    -0.13500
C1465       C  0.13013185  0.21017588  0.71272754     0.03200
C1466       C  0.12966997  0.23888899  0.70654659    -0.25600
H1467       H  0.13303285  0.32919314  0.73845184     0.08300
H1468       H  0.13090206  0.29462751  0.70062728     0.11900
H1469       H  0.13109421  0.26325997  0.79991648     0.11800
H1470       H  0.12996276  0.21420944  0.78413935     0.11500
H1471       H  0.13037533  0.17959389  0.74620744     0.12100
H1472       H  0.12993486  0.24568370  0.68489467     0.14000
C1473       C  0.21961284  0.12320400  0.70271685    -0.06000
C1474       C  0.24760416  0.12381815  0.69370398    -0.05900
C1475       C  0.26954881  0.12311055  0.71310808    -0.24100
C1476       C  0.26389032  0.12215958  0.74190489     0.18100
C1477       C  0.23583351  0.12144468  0.75121608     0.15400
C1478       C  0.21391061  0.12168254  0.73158083    -0.19100
C1479       C  0.23015875  0.12115787  0.78003772    -0.20900
C1480       C  0.25205198  0.12212851  0.79947992    -0.13500
C1481       C  0.27999669  0.12294702  0.79044216     0.03200
C1482       C  0.28578401  0.12257871  0.76155424    -0.25600
H1483       H  0.25255691  0.12502209  0.67160003     0.08300
H1484       H  0.29092881  0.12375615  0.70560688     0.11900
H1485       H  0.19241686  0.12147824  0.73882913     0.11800
H1486       H  0.20877641  0.12066863  0.78754517     0.11500
H1487       H  0.24711543  0.12238244  0.82162996     0.12100
H1488       H  0.30726936  0.12354349  0.75435190     0.14000
C1489       C  0.28482671  0.28938300  0.61720480    -0.06000
C1490       C  0.25776160  0.30101262  0.61467929    -0.05900
C1491       C  0.23406350  0.28400951  0.61509088    -0.24100
C1492       C  0.23688672  0.25491632  0.61770171     0.18100
C1493       C  0.26402651  0.24288877  0.61949446     0.15400
C1494       C  0.28779103  0.26017616  0.61951096    -0.19100
C1495       C  0.26692327  0.21376747  0.62150155    -0.20900
C1496       C  0.24327299  0.19676600  0.62193918    -0.13500
C1497       C  0.21615038  0.20846125  0.62072594     0.03200
C1498       C  0.21308278  0.23767248  0.61868718    -0.25600
H1499       H  0.25483050  0.32347506  0.61310678     0.08300
H1500       H  0.21351334  0.29366171  0.61357380     0.11900
H1501       H  0.30851586  0.25094057  0.62137140     0.11800
H1502       H  0.28748807  0.20411692  0.62283617     0.11500
H1503       H  0.24623332  0.17432293  0.62376441     0.12100
H1504       H  0.19229906  0.24689625  0.61761245     0.14000
C1505       C  0.35207556  0.55062325  0.62835684    -0.06000
C1506       C  0.32976296  0.53907533  0.61296846    -0.05900
C1507       C  0.32794015  0.51017149  0.60896706    -0.24100
C1508       C  0.34824534  0.49234014  0.62055385     0.18100
C1509       C  0.37154392  0.50385840  0.63474654     0.15400
C1510       C  0.37348364  0.53293097  0.63826289    -0.19100
C1511       C  0.39175411  0.48604744  0.64650828    -0.20900
C1512       C  0.38793578  0.45712177  0.64593278    -0.13500
C1513       C  0.36397892  0.44553827  0.63334935     0.03200
C1514       C  0.34481369  0.46322706  0.61959565    -0.25600
H1515       H  0.31320707  0.55232373  0.60473875     0.08300
H1516       H  0.31008046  0.50172206  0.59780195     0.11900
H1517       H  0.39089248  0.54160470  0.64998570     0.11800
H1518       H  0.40987777  0.49451573  0.65721858     0.11500
H1519       H  0.40321682  0.44389648  0.65635977     0.12100
H1520       H  0.32636061  0.45452241  0.60964915     0.14000
C1521       C  0.37260091  0.65576140  0.44121011    -0.06000
C1522       C  0.38631358  0.67821425  0.45453169    -0.05900
C1523       C  0.38721351  0.68025801  0.48381916    -0.24100
C1524       C  0.37425711  0.65998621  0.50044107     0.18100
C1525       C  0.36106596  0.63694384  0.48731400     0.15400
C1526       C  0.36048074  0.63487855  0.45789540    -0.19100
C1527       C  0.34797150  0.61671612  0.50380391    -0.20900
C1528       C  0.34724366  0.61963271  0.53293773    -0.13500
C1529       C  0.35968249  0.64279090  0.54632307     0.03200
C1530       C  0.37362691  0.66270798  0.52986719    -0.25600
H1531       H  0.39583826  0.69461472  0.44228182     0.08300
H1532       H  0.39751354  0.69804203  0.49344606     0.11900
H1533       H  0.34970682  0.61750126  0.44802056     0.11800
H1534       H  0.33782698  0.59885996  0.49413480     0.11500
H1535       H  0.33650992  0.60384568  0.54499045     0.12100
H1536       H  0.38328942  0.68068080  0.53983078     0.14000
C1537       C  0.15447035  0.56325114  0.84794458    -0.06000
C1538       C  0.17133660  0.55076441  0.86869850    -0.05900
C1539       C  0.17184356  0.52175951  0.87208358    -0.24100
C1540       C  0.15534328  0.50465197  0.85490446     0.18100
C1541       C  0.13737585  0.51700687  0.83476053     0.15400
C1542       C  0.13710837  0.54623608  0.83132654    -0.19100
C1543       C  0.12055523  0.49983050  0.81791372    -0.20900
C1544       C  0.12245643  0.47069853  0.82012092    -0.13500
C1545       C  0.14130690  0.45819927  0.83911565     0.03200
C1546       C  0.15721105  0.47537999  0.85694312    -0.25600
H1547       H  0.18476458  0.56339998  0.88193181     0.08300
H1548       H  0.18556041  0.51268257  0.88777994     0.11900
H1549       H  0.12370655  0.55566614  0.81555004     0.11800
H1550       H  0.10647896  0.50888757  0.80252617     0.11500
H1551       H  0.10994049  0.45793763  0.80612422     0.12100
H1552       H  0.17164840  0.46599526  0.87181534     0.14000
C1553       C  0.14391660  0.65500722  0.93903678    -0.06000
C1554       C  0.12187623  0.66903173  0.95286614    -0.05900
C1555       C  0.12060210  0.66956950  0.98208028    -0.24100
C1556       C  0.14123105  0.65591511  0.99794837     0.18100
C1557       C  0.16272043  0.64064992  0.98420499     0.15400
C1558       C  0.16395478  0.64033256  0.95485771    -0.19100
C1559       C  0.18308733  0.62660005  0.00006095    -0.20900
C1560       C  0.18268227  0.62833676  0.02925797    -0.13500
C1561       C  0.16207331  0.64436611  0.04306737     0.03200
C1562       C  0.14114212  0.65782799  0.02728711    -0.25600
H1563       H  0.10613028  0.68048451  0.94112412     0.08300
H1564       H  0.10385665  0.68117492  0.99224654     0.11900
H1565       H  0.18088420  0.62925840  0.94438422     0.11800
H1566       H  0.19961826  0.61469801  0.98988371     0.11500
H1567       H  0.19906597  0.61784462  0.04102410     0.12100
H1568       H  0.12504129  0.67005562  0.03780610     0.14000
C1569       C  0.21281164  0.64463854  0.77544764    -0.06000
C1570       C  0.20722448  0.66087713  0.75151080    -0.05900
C1571       C  0.22564976  0.66081556  0.72893245    -0.24100
C1572       C  0.24988296  0.64422424  0.72967395     0.18100
C1573       C  0.25605301  0.62817175  0.75381309     0.15400
C1574       C  0.23761000  0.62871590  0.77673718    -0.19100
C1575       C  0.28030112  0.61149400  0.75434818    -0.20900
C1576       C  0.29810181  0.61058383  0.73115982    -0.13500
C1577       C  0.29199079  0.62633526  0.70700993     0.03200
C1578       C  0.26786181  0.64325000  0.70651928    -0.25600
H1579       H  0.18837945  0.67358167  0.75014805     0.08300
H1580       H  0.22068936  0.67338504  0.71070247     0.11900
H1581       H  0.24206103  0.61611660  0.79508240     0.11800
H1582       H  0.28543690  0.59907035  0.77262506     0.11500
H1583       H  0.31674051  0.59756675  0.73218641     0.12100
H1584       H  0.26310608  0.65576674  0.68818439     0.14000
C1585       C  0.35976164  0.94716926  0.84364676    -0.06000
C1586       C  0.37640658  0.95951888  0.82282628    -0.05900
C1587       C  0.37976614  0.98847961  0.82179094    -0.24100
C1588       C  0.36621836  0.00578635  0.84132258     0.18100
C1589       C  0.34984531  0.99364865  0.86270476     0.15400
C1590       C  0.34702477  0.96435862  0.86398668    -0.19100
C1591       C  0.33576701  0.01109622  0.88179804    -0.20900
C1592       C  0.33696675  0.04019759  0.87904804    -0.13500
C1593       C  0.35264311  0.05243775  0.85745123     0.03200
C1594       C  0.36787739  0.03504641  0.83910728    -0.25600
H1595       H  0.38669821  0.94673633  0.80704076     0.08300
H1596       H  0.39240574  0.99736941  0.80528046     0.11900
H1597       H  0.33408072  0.95508232  0.88004748     0.11800
H1598       H  0.32313952  0.00225008  0.89833572     0.11500
H1599       H  0.32509652  0.05316468  0.89351587     0.12100
H1600       H  0.37982818  0.04421595  0.82222237     0.14000
C1601       C  0.37316766  0.85319847  0.93960965    -0.06000
C1602       C  0.39303759  0.83508142  0.95186746    -0.05900
C1603       C  0.39595421  0.83362771  0.98102016    -0.24100
C1604       C  0.37916077  0.85036851  0.99852245     0.18100
C1605       C  0.36035338  0.86988156  0.98639199     0.15400
C1606       C  0.35749391  0.87120603  0.95707388    -0.19100
C1607       C  0.34386388  0.88693990  0.00381953    -0.20900
C1608       C  0.34488817  0.88370867  0.03289934    -0.13500
C1609       C  0.36237859  0.86329787  0.04525247     0.03200
C1610       C  0.38008248  0.84719514  0.02785695    -0.25600
H1611       H  0.40548848  0.82105019  0.93896035     0.08300
H1612       H  0.41071022  0.81874762  0.98988048     0.11900
H1613       H  0.34230337  0.88548776  0.94793114     0.11800
H1614       H  0.32954707  0.90223279  0.99493628     0.11500
H1615       H  0.33119829  0.89665309  0.04567714     0.12100
H1616       H  0.39387691  0.83158682  0.03702101     0.14000
C1617       C  0.37773857  0.78659029  0.77652116    -0.06000
C1618       C  0.38157663  0.79586069  0.74882651    -0.05900
C1619       C  0.38287256  0.77681405  0.72656606    -0.24100
C1620       C  0.38041052  0.74806085  0.73151537     0.18100
C1621       C  0.37612542  0.73847258  0.75917805     0.15400
C1622       C  0.37469511  0.75778287  0.78149168    -0.19100
C1623       C  0.37337448  0.70970989  0.76404228    -0.20900
C1624       C  0.37470874  0.69065718  0.74174614    -0.13500
C1625       C  0.37897206  0.69995556  0.71415185     0.03200
C1626       C  0.38196226  0.72877657  0.70923191    -0.25600
H1627       H  0.38360088  0.81796305  0.74429186     0.08300
H1628       H  0.38590707  0.78458208  0.70549372     0.11900
H1629       H  0.37145518  0.75037464  0.80267235     0.11800
H1630       H  0.37002185  0.70194942  0.78506367     0.11500
H1631       H  0.37217192  0.66857702  0.74611084     0.12100
H1632       H  0.38486131  0.73626998  0.68802556     0.14000
C1633       C  0.20908265  0.72631599  0.87015566    -0.06000
C1634       C  0.19981332  0.75429545  0.87113059    -0.05900
C1635       C  0.21910909  0.77618176  0.87272225    -0.24100
C1636       C  0.24795839  0.77039549  0.87361586     0.18100
C1637       C  0.25736206  0.74225969  0.87386561     0.15400
C1638       C  0.23792086  0.72046905  0.87203134    -0.19100
C1639       C  0.28611019  0.73635805  0.87517342    -0.20900
C1640       C  0.30548297  0.75810786  0.87501954    -0.13500
C1641       C  0.29649294  0.78618271  0.87345106     0.03200
C1642       C  0.26757835  0.79218874  0.87341366    -0.25600
H1643       H  0.17769341  0.75927069  0.86975326     0.08300
H1644       H  0.21149825  0.79762376  0.87268797     0.11900
H1645       H  0.24528697  0.69892326  0.87164442     0.11800
H1646       H  0.29364707  0.71489187  0.87561740     0.11500
H1647       H  0.32757930  0.75285460  0.87516541     0.12100
H1648       H  0.26033025  0.81373852  0.87239186     0.14000
C1649       C  0.16122383  0.86610087  0.43720771    -0.06000
C1650       C  0.18344868  0.88017680  0.45036100    -0.05900
C1651       C  0.18459666  0.88237931  0.47952085    -0.24100
C1652       C  0.16359342  0.87044076  0.49594796     0.18100
C1653       C  0.14035095  0.85765175  0.48284725     0.15400
C1654       C  0.13919019  0.85579031  0.45357980    -0.19100
C1655       C  0.11929985  0.84578036  0.49925269    -0.20900
C1656       C  0.12199263  0.84524539  0.52836367    -0.13500
C1657       C  0.14574321  0.85663606  0.54150613     0.03200
C1658       C  0.16606385  0.86998827  0.52519486    -0.25600
H1659       H  0.20051803  0.88857276  0.43817788     0.08300
H1660       H  0.20241006  0.89251514  0.48923565     0.11900
H1661       H  0.12174269  0.84518846  0.44366201     0.11800
H1662       H  0.10123880  0.83608125  0.48954233     0.11500
H1663       H  0.10593681  0.83500870  0.54050440     0.12100
H1664       H  0.18431651  0.87910440  0.53514326     0.14000
C1665       C  0.14258528  0.05136083  0.64309923    -0.06000
C1666       C  0.12209652  0.03833989  0.65954488    -0.05900
C1667       C  0.12073121  0.00919341  0.66092156    -0.24100
C1668       C  0.13973497  0.99260894  0.64576195     0.18100
C1669       C  0.15957541  0.00551898  0.62815386     0.15400
C1670       C  0.16083731  0.03477214  0.62689605    -0.19100
C1671       C  0.17831154  0.98896648  0.61264017    -0.20900
C1672       C  0.17772970  0.95988077  0.61491992    -0.13500
C1673       C  0.15861936  0.94691467  0.63296374     0.03200
C1674       C  0.13954922  0.96337551  0.64825814    -0.25600
H1675       H  0.10771192  0.05067765  0.67215105     0.08300
H1676       H  0.10522246  0.99964920  0.67430497     0.11900
H1677       H  0.17658252  0.04457743  0.61396041     0.11800
H1678       H  0.19360807  0.99850960  0.59900943     0.11500
H1679       H  0.19270614  0.94752223  0.60303400     0.12100
H1680       H  0.12463326  0.95344909  0.66205847     0.14000
C1681       C  0.30077916  0.71983950  0.62295062    -0.06000
C1682       C  0.30985607  0.74707836  0.62942010    -0.05900
C1683       C  0.29111664  0.76973982  0.62868508    -0.24100
C1684       C  0.26292731  0.76559012  0.62149639     0.18100
C1685       C  0.25353239  0.73832999  0.61501975     0.15400
C1686       C  0.27246010  0.71568883  0.61579386    -0.19100
C1687       C  0.22531516  0.73414239  0.60798809    -0.20900
C1688       C  0.20651567  0.75674551  0.60742641    -0.13500
C1689       C  0.21556189  0.78396708  0.61389231     0.03200
C1690       C  0.24393715  0.78818999  0.62087795    -0.25600
H1691       H  0.33146028  0.75087941  0.63514275     0.08300
H1692       H  0.29866311  0.79050564  0.63380806     0.11900
H1693       H  0.26504979  0.69480243  0.61093705     0.11800
H1694       H  0.21773959  0.71334324  0.60306472     0.11500
H1695       H  0.18478884  0.75284132  0.60228671     0.12100
H1696       H  0.25124897  0.80902637  0.62611526     0.14000
C1697       C  0.12877819  0.78460924  0.69696498    -0.06000
C1698       C  0.13316951  0.75671663  0.68823403    -0.05900
C1699       C  0.13107457  0.73480191  0.70719892    -0.24100
C1700       C  0.12477056  0.74040453  0.73527512     0.18100
C1701       C  0.11987885  0.76832942  0.74423320     0.15400
C1702       C  0.12168509  0.79026013  0.72495641    -0.19100
C1703       C  0.11419011  0.77390072  0.77250672    -0.20900
C1704       C  0.11453108  0.75213287  0.79189549    -0.13500
C1705       C  0.11999565  0.72446508  0.78317044     0.03200
C1706       C  0.12435361  0.71861675  0.75472212    -0.25600
H1707       H  0.13860409  0.75177596  0.66672798     0.08300
H1708       H  0.13495314  0.71354651  0.70002662     0.11900
H1709       H  0.11828836  0.81168211  0.73189368     0.11800
H1710       H  0.11033966  0.79513611  0.77974442     0.11500
H1711       H  0.11103882  0.75697899  0.81382634     0.12100
H1712       H  0.12891383  0.69734051  0.74795500     0.14000
C1713       C  0.22260497  0.86878692  0.69997304    -0.06000
C1714       C  0.25013583  0.87103892  0.68992267    -0.05900
C1715       C  0.27280872  0.87076337  0.70835477    -0.24100
C1716       C  0.26838128  0.86854723  0.73724304     0.18100
C1717       C  0.24081092  0.86646436  0.74771983     0.15400
C1718       C  0.21806971  0.86633561  0.72898229    -0.19100
C1719       C  0.23653121  0.86472857  0.77674968    -0.20900
C1720       C  0.25934470  0.86530349  0.79519024    -0.13500
C1721       C  0.28677567  0.86719058  0.78485344     0.03200
C1722       C  0.29112477  0.86857423  0.75580548    -0.25600
H1723       H  0.25422059  0.87271370  0.66767174     0.08300
H1724       H  0.29381195  0.87238758  0.70000714     0.11900
H1725       H  0.19692619  0.86461135  0.73696942     0.11800
H1726       H  0.21557026  0.86308223  0.78518500     0.11500
H1727       H  0.25557987  0.86390671  0.81752047     0.12100
H1728       H  0.31222670  0.87010626  0.74764040     0.14000
C1729       C  0.55174529  0.35128377  0.63753028    -0.06000
C1730       C  0.54056612  0.33247179  0.61770164    -0.05900
C1731       C  0.51166550  0.32926567  0.61479732    -0.24100
C1732       C  0.49326605  0.34451721  0.63194310     0.18100
C1733       C  0.50419020  0.36401434  0.65151103     0.15400
C1734       C  0.53334278  0.36753093  0.65396654    -0.19100
C1735       C  0.48578206  0.37900925  0.66888422    -0.20900
C1736       C  0.45700670  0.37411117  0.66751926    -0.13500
C1737       C  0.44592504  0.35427381  0.64860295     0.03200
C1738       C  0.46421581  0.33998623  0.63039015    -0.25600
H1739       H  0.55426255  0.31981254  0.60464440     0.08300
H1740       H  0.50374065  0.31431463  0.59961323     0.11900
H1741       H  0.54168130  0.38195563  0.66945347     0.11800
H1742       H  0.49366597  0.39413582  0.68391551     0.11500
H1743       H  0.44338632  0.38579430  0.68152199     0.12100
H1744       H  0.45597408  0.32476386  0.61564016     0.14000
C1745       C  0.64532574  0.35299120  0.54741881    -0.06000
C1746       C  0.62425919  0.33656310  0.53488710    -0.05900
C1747       C  0.62239474  0.33376052  0.50578529    -0.24100
C1748       C  0.64141831  0.34749002  0.48843986     0.18100
C1749       C  0.66240700  0.36444626  0.50066974     0.15400
C1750       C  0.66434000  0.36698366  0.53004438    -0.19100
C1751       C  0.68121861  0.37845524  0.48328445    -0.20900
C1752       C  0.67926229  0.37575771  0.45416901    -0.13500
C1753       C  0.65868530  0.35872139  0.44175425     0.03200
C1754       C  0.63984051  0.34450425  0.45910324    -0.25600
H1755       H  0.60937975  0.32534472  0.54763411     0.08300
H1756       H  0.60613268  0.32071871  0.49686404     0.11900
H1757       H  0.68073920  0.37960901  0.53932845     0.11800
H1758       H  0.69746927  0.39151308  0.49219372     0.11500
H1759       H  0.69423282  0.38674395  0.44132018     0.12100
H1760       H  0.62386830  0.33134309  0.44980391     0.14000
C1761       C  0.55271790  0.15628477  0.85535926    -0.06000
C1762       C  0.53948551  0.17570290  0.87347734    -0.05900
C1763       C  0.51039939  0.17710885  0.87569151    -0.24100
C1764       C  0.49357429  0.15916229  0.85982208     0.18100
C1765       C  0.50635017  0.13902942  0.84198515     0.15400
C1766       C  0.53588979  0.13757629  0.83993285    -0.19100
C1767       C  0.48925592  0.12120478  0.82607315    -0.20900
C1768       C  0.46002284  0.12382334  0.82725541    -0.13500
C1769       C  0.44710941  0.14419906  0.84451795     0.03200
C1770       C  0.46418571  0.16151340  0.86111008    -0.25600
H1771       H  0.55167901  0.19031374  0.88583849     0.08300
H1772       H  0.50105372  0.19260820  0.88954384     0.11900
H1773       H  0.54564520  0.12256743  0.82582718     0.11800
H1774       H  0.49848008  0.10554597  0.81232820     0.11500
H1775       H  0.44748717  0.11004953  0.81428918     0.12100
H1776       H  0.45466136  0.17736381  0.87444853     0.14000
C1777       C  0.64351311  0.15584710  0.95084490    -0.06000
C1778       C  0.61803540  0.16308130  0.96377973    -0.05900
C1779       C  0.61567301  0.16308691  0.99296419    -0.24100
C1780       C  0.63880045  0.15602823  0.00970774     0.18100
C1781       C  0.66430295  0.14805104  0.99687624     0.15400
C1782       C  0.66642306  0.14778349  0.96759281    -0.19100
C1783       C  0.68750134  0.14115903  0.01354283    -0.20900
C1784       C  0.68562872  0.14262836  0.04268430    -0.13500
C1785       C  0.66050207  0.15094166  0.05571038     0.03200
C1786       C  0.63703175  0.15735681  0.03903182    -0.25600
H1787       H  0.60005400  0.16929833  0.95134783     0.08300
H1788       H  0.59592929  0.16915785  0.00243912     0.11900
H1789       H  0.68621923  0.14218660  0.95791482     0.11800
H1790       H  0.70721249  0.13501298  0.00404122     0.11500
H1791       H  0.70403574  0.13758074  0.05501863     0.12100
H1792       H  0.61753606  0.16380309  0.04880404     0.14000
C1793       C  0.62699196  0.28744377  0.70573128    -0.06000
C1794       C  0.62522185  0.25940189  0.69665503    -0.05900
C1795       C  0.62428429  0.23750850  0.71596718    -0.24100
C1796       C  0.62562222  0.24316137  0.74478614     0.18100
C1797       C  0.62728609  0.27128881  0.75416721     0.15400
C1798       C  0.62759672  0.29326774  0.73461323    -0.19100
C1799       C  0.62920130  0.27691928  0.78294093    -0.20900
C1800       C  0.62988362  0.25497142  0.80219675    -0.13500
C1801       C  0.62837871  0.22686892  0.79316875     0.03200
C1802       C  0.62591592  0.22116201  0.76432257    -0.25600
H1803       H  0.62460000  0.25438632  0.67448973     0.08300
H1804       H  0.62299317  0.21613033  0.70833265     0.11900
H1805       H  0.62923718  0.31478140  0.74181406     0.11800
H1806       H  0.63055789  0.29829854  0.79055692     0.11500
H1807       H  0.63174580  0.26007011  0.82427094     0.12100
H1808       H  0.62489061  0.19964314  0.75702303     0.14000
C1809       C  0.94995510  0.36339332  0.85628106    -0.06000
C1810       C  0.96265832  0.35126890  0.88003080    -0.05900
C1811       C  0.99189164  0.34896002  0.88212559    -0.24100
C1812       C  0.00908044  0.35858778  0.86043902     0.18100
C1813       C  0.99648763  0.37151848  0.83689893     0.15400
C1814       C  0.96719844  0.37393564  0.83502336    -0.19100
C1815       C  0.01333020  0.38129437  0.81519060    -0.20900
C1816       C  0.04228764  0.37778571  0.81635836    -0.13500
C1817       C  0.05532260  0.36429905  0.83921551     0.03200
C1818       C  0.03849459  0.35505675  0.86151989    -0.25600
H1819       H  0.94995487  0.34292223  0.89675274     0.08300
H1820       H  0.00100970  0.33910765  0.90044387     0.11900
H1821       H  0.95783127  0.38321569  0.81650797     0.11800
H1822       H  0.00407652  0.39137057  0.79705161     0.11500
H1823       H  0.05448124  0.38542113  0.79892076     0.12100
H1824       H  0.04813611  0.34477152  0.87933714     0.14000
C1825       C  0.84682458  0.36325853  0.94331090    -0.06000
C1826       C  0.83281654  0.38609785  0.95604815    -0.05900
C1827       C  0.83162777  0.38886593  0.98529200    -0.24100
C1828       C  0.84441573  0.36886388  0.00264840     0.18100
C1829       C  0.85872442  0.34594151  0.99018840     0.15400
C1830       C  0.85987766  0.34328706  0.96071634    -0.19100
C1831       C  0.87149333  0.32589491  0.00744109    -0.20900
C1832       C  0.87005925  0.32836564  0.03663386    -0.13500
C1833       C  0.85578892  0.35093107  0.04948523     0.03200
C1834       C  0.84300587  0.37124469  0.03218088    -0.25600
H1835       H  0.82250717  0.40186176  0.94336217     0.08300
H1836       H  0.82054687  0.40661835  0.99432717     0.11900
H1837       H  0.87068433  0.32551393  0.95137728     0.11800
H1838       H  0.88253856  0.30815010  0.99834834     0.11500
H1839       H  0.88005022  0.31231058  0.04920154     0.12100
H1840       H  0.83182271  0.38872922  0.04162229     0.14000
C1841       C  0.79127271  0.38679390  0.77832550    -0.06000
C1842       C  0.80066238  0.39411875  0.75139707    -0.05900
C1843       C  0.78195154  0.39531009  0.72865456    -0.24100
C1844       C  0.75344264  0.38932848  0.73242255     0.18100
C1845       C  0.74381426  0.38271596  0.75958815     0.15400
C1846       C  0.76265516  0.38146221  0.78218800    -0.19100
C1847       C  0.71549389  0.37692971  0.76377608    -0.20900
C1848       C  0.69689442  0.37689265  0.74124486    -0.13500
C1849       C  0.70603666  0.38264184  0.71384187     0.03200
C1850       C  0.73446092  0.38928860  0.70960843    -0.25600
H1851       H  0.82259947  0.39835022  0.74778279     0.08300
H1852       H  0.78984758  0.40054300  0.70808037     0.11900
H1853       H  0.75500469  0.37597989  0.80280908     0.11800
H1854       H  0.70774444  0.37198131  0.78448681     0.11500
H1855       H  0.67522465  0.37183507  0.74534625     0.12100
H1856       H  0.74188890  0.39373441  0.68866094     0.14000
C1857       C  0.79329875  0.29030397  0.86200785    -0.06000
C1858       C  0.80180296  0.26360634  0.85263796    -0.05900
C1859       C  0.78361361  0.24098689  0.85402923    -0.24100
C1860       C  0.75665158  0.24465620  0.86492119     0.18100
C1861       C  0.74772726  0.27146174  0.87412841     0.15400
C1862       C  0.76605930  0.29416800  0.87246906    -0.19100
C1863       C  0.72067505  0.27503220  0.88494405    -0.20900
C1864       C  0.70256899  0.25225721  0.88644349    -0.13500
C1865       C  0.71127008  0.22556967  0.87719420     0.03200
C1866       C  0.73844828  0.22193532  0.86659520    -0.25600
H1867       H  0.82262198  0.26014151  0.84429923     0.08300
H1868       H  0.79069221  0.22059625  0.84673526     0.11900
H1869       H  0.75926147  0.31468547  0.87969789     0.11800
H1870       H  0.71347461  0.29543442  0.89207509     0.11500
H1871       H  0.68162470  0.25562481  0.89448834     0.12100
H1872       H  0.74534128  0.20151085  0.85918139     0.14000
C1873       C  0.85262384  0.15126854  0.55047529    -0.06000
C1874       C  0.83556381  0.13094740  0.53757680    -0.05900
C1875       C  0.83573986  0.12704168  0.50855081    -0.24100
C1876       C  0.85285824  0.14348937  0.49159844     0.18100
C1877       C  0.87044441  0.16372546  0.50421389     0.15400
C1878       C  0.87038271  0.16738501  0.53359265    -0.19100
C1879       C  0.88735648  0.18031990  0.48713207    -0.20900
C1880       C  0.88628379  0.17747484  0.45793533    -0.13500
C1881       C  0.86838992  0.15787167  0.44508318     0.03200
C1882       C  0.85210310  0.14051990  0.46221523    -0.25600
H1883       H  0.82182816  0.11802201  0.54998335     0.08300
H1884       H  0.82215468  0.11139071  0.49933327     0.11900
H1885       H  0.88358009  0.18315643  0.54318331     0.11800
H1886       H  0.90101896  0.19591809  0.49631356     0.11500
H1887       H  0.89908671  0.19115551  0.44534936     0.12100
H1888       H  0.83805163  0.12545636  0.45269886     0.14000
C1889       C  0.94789416  0.15378609  0.63927215    -0.06000
C1890       C  0.95943083  0.17343377  0.62068680    -0.05900
C1891       C  0.98832079  0.17507016  0.61667737    -0.24100
C1892       C  0.00648323  0.15724512  0.63132287     0.18100
C1893       C  0.99518653  0.13679627  0.64940467     0.15400
C1894       C  0.96597019  0.13497681  0.65305948    -0.19100
C1895       C  0.01338334  0.11920305  0.66431357    -0.20900
C1896       C  0.04233692  0.12262171  0.66230086    -0.13500
C1897       C  0.05385441  0.14347456  0.64507550     0.03200
C1898       C  0.03572437  0.16023512  0.62897993    -0.25600
H1899       H  0.94608887  0.18806447  0.60952183     0.08300
H1900       H  0.99648059  0.19080112  0.60265239     0.11900
H1901       H  0.95745162  0.11976208  0.66744915     0.11800
H1902       H  0.00523576  0.10330639  0.67815843     0.11500
H1903       H  0.05579784  0.10916072  0.67472699     0.12100
H1904       H  0.04427737  0.17641106  0.61570435     0.14000
C1905       C  0.78126890  0.21231653  0.62842380    -0.06000
C1906       C  0.75348787  0.20295125  0.62976667    -0.05900
C1907       C  0.73129138  0.22197731  0.62834845    -0.24100
C1908       C  0.73656891  0.25066332  0.62589263     0.18100
C1909       C  0.76446249  0.26030996  0.62473834     0.15400
C1910       C  0.78662653  0.24105178  0.62577137    -0.19100
C1911       C  0.76970765  0.28908332  0.62297892    -0.20900
C1912       C  0.74746870  0.30817708  0.62277732    -0.13500
C1913       C  0.71972126  0.29869983  0.62383070     0.03200
C1914       C  0.71439803  0.26989209  0.62507323    -0.25600
H1915       H  0.74888609  0.18086769  0.63178952     0.08300
H1916       H  0.71002880  0.21428698  0.62938979     0.11900
H1917       H  0.80800733  0.24848550  0.62494759     0.11800
H1918       H  0.79096417  0.29681893  0.62215164     0.11500
H1919       H  0.75194639  0.33036603  0.62183180     0.12100
H1920       H  0.69302400  0.26248095  0.62627428     0.14000
C1921       C  0.71841467  0.13912051  0.79197432    -0.06000
C1922       C  0.74471735  0.14804984  0.80180393    -0.05900
C1923       C  0.76809156  0.14817476  0.78419277    -0.24100
C1924       C  0.76591479  0.13881342  0.75638995     0.18100
C1925       C  0.73963427  0.12962034  0.74622213     0.15400
C1926       C  0.71593453  0.13021007  0.76392697    -0.19100
C1927       C  0.73759424  0.11986392  0.71855073    -0.20900
C1928       C  0.76114565  0.11936752  0.70113954    -0.13500
C1929       C  0.78741753  0.12875449  0.71080685     0.03200
C1930       C  0.78955502  0.13849322  0.73863903    -0.25600
H1931       H  0.74714919  0.15528926  0.82323170     0.08300
H1932       H  0.78794977  0.15539706  0.79242739     0.11900
H1933       H  0.69582037  0.12319284  0.75612739     0.11800
H1934       H  0.71773529  0.11265914  0.71030219     0.11500
H1935       H  0.75860492  0.11194258  0.67979934     0.12100
H1936       H  0.80948908  0.14601131  0.74642512     0.14000
C1937       C  0.88087058  0.30446136  0.77685715    -0.06000
C1938       C  0.88012572  0.31407082  0.74899228    -0.05900
C1939       C  0.87964094  0.29520997  0.72642929    -0.24100
C1940       C  0.87960402  0.26625463  0.73118252     0.18100
C1941       C  0.88133743  0.25629526  0.75902353     0.15400
C1942       C  0.88215368  0.27540397  0.78164167    -0.19100
C1943       C  0.88137959  0.22736072  0.76381522    -0.20900
C1944       C  0.87903917  0.20851613  0.74139939    -0.13500
C1945       C  0.87648465  0.21810070  0.71362669     0.03200
C1946       C  0.87715473  0.24713547  0.70866496    -0.25600
H1947       H  0.87929905  0.33630019  0.74459559     0.08300
H1948       H  0.87856160  0.30330551  0.70527204     0.11900
H1949       H  0.88264335  0.26762636  0.80295019     0.11800
H1950       H  0.88276592  0.21927944  0.78496230     0.11500
H1951       H  0.87865090  0.18630861  0.74592011     0.12100
H1952       H  0.87549273  0.25484450  0.68738611     0.14000
C1953       C  0.55751363  0.65383911  0.63973926    -0.06000
C1954       C  0.54591054  0.66379372  0.61446478    -0.05900
C1955       C  0.51745724  0.66046207  0.60857599    -0.24100
C1956       C  0.50004024  0.64715410  0.62786731     0.18100
C1957       C  0.51187049  0.63552626  0.65246973     0.15400
C1958       C  0.54048002  0.63885573  0.65821160    -0.19100
C1959       C  0.49466575  0.62179759  0.67156874    -0.20900
C1960       C  0.46578462  0.62142035  0.66745923    -0.13500
C1961       C  0.45345559  0.63483042  0.64419775     0.03200
C1962       C  0.47086997  0.64659990  0.62376595    -0.25600
H1963       H  0.55869015  0.67483445  0.59947118     0.08300
H1964       H  0.50892672  0.66911539  0.58938514     0.11900
H1965       H  0.54924731  0.63053037  0.67745866     0.11800
H1966       H  0.50339547  0.61237723  0.69030766     0.11500
H1967       H  0.45298294  0.61178919  0.68338982     0.12100
H1968       H  0.46169743  0.65670560  0.60559607     0.14000
C1969       C  0.63813097  0.55964592  0.65231045    -0.06000
C1970       C  0.62271468  0.54772128  0.67435391    -0.05900
C1971       C  0.61966384  0.51859928  0.67645288    -0.24100
C1972       C  0.63165905  0.50065197  0.65634207     0.18100
C1973       C  0.64615524  0.51247061  0.63348276     0.15400
C1974       C  0.64944333  0.54175046  0.63168195    -0.19100
C1975       C  0.65774353  0.49476695  0.61306006    -0.20900
C1976       C  0.65585934  0.46570699  0.61561073    -0.13500
C1977       C  0.64248140  0.45338779  0.63874214     0.03200
C1978       C  0.62999346  0.47117037  0.65894977    -0.25600
H1979       H  0.61376098  0.56089708  0.69062226     0.08300
H1980       H  0.60831306  0.51011516  0.69407144     0.11900
H1981       H  0.66120903  0.55055453  0.61448501     0.11800
H1982       H  0.66875828  0.50338387  0.59528942     0.11500
H1983       H  0.66570393  0.45281361  0.59963900     0.12100
H1984       H  0.61963712  0.46216305  0.67692724     0.14000
C1985       C  0.65445406  0.64666165  0.44860026    -0.06000
C1986       C  0.66401674  0.62142143  0.46058248    -0.05900
C1987       C  0.66262923  0.61726873  0.48946010    -0.24100
C1988       C  0.65180057  0.63834789  0.50688213     0.18100
C1989       C  0.64093236  0.66322736  0.49483801     0.15400
C1990       C  0.64213844  0.66714409  0.46580108    -0.19100
C1991       C  0.63004927  0.68432223  0.51211914    -0.20900
C1992       C  0.63136121  0.68154099  0.54109663    -0.13500
C1993       C  0.64355615  0.65759724  0.55338814     0.03200
C1994       C  0.65282308  0.63555182  0.53614552    -0.25600
H1995       H  0.67323442  0.60506051  0.44768778     0.08300
H1996       H  0.67080830  0.59796108  0.49821511     0.11900
H1997       H  0.63453212  0.68657465  0.45677990     0.11800
H1998       H  0.62138583  0.70338129  0.50327063     0.11500
H1999       H  0.62362487  0.69870688  0.55391981     0.12100
H2000       H  0.66210733  0.61697205  0.54540240     0.14000
C2001       C  0.85970873  0.56215471  0.85071633    -0.06000
C2002       C  0.88179513  0.55010787  0.83518044    -0.05900
C2003       C  0.88560250  0.52117221  0.83412940    -0.24100
C2004       C  0.86736885  0.50361318  0.84852708     0.18100
C2005       C  0.84564731  0.51540155  0.86503300     0.15400
C2006       C  0.84202813  0.54464404  0.86616673    -0.19100
C2007       C  0.82732087  0.49766364  0.87923845    -0.20900
C2008       C  0.82955841  0.46864058  0.87585112    -0.13500
C2009       C  0.85040293  0.45684354  0.85852593     0.03200
C2010       C  0.86983716  0.47446065  0.84568909    -0.25600
H2011       H  0.89587602  0.56304340  0.82318449     0.08300
H2012       H  0.90239588  0.51251218  0.82145764     0.11900
H2013       H  0.82507733  0.55366089  0.87839035     0.11800
H2014       H  0.81069254  0.50623419  0.89218021     0.11500
H2015       H  0.81449091  0.45542615  0.88624160     0.12100
H2016       H  0.88595912  0.46559624  0.83228168     0.14000
C2017       C  0.95004446  0.65100467  0.85974927    -0.06000
C2018       C  0.96323181  0.66343218  0.88306925    -0.05900
C2019       C  0.99229038  0.66424635  0.88500196    -0.24100
C2020       C  0.00873726  0.65244365  0.86376794     0.18100
C2021       C  0.99580454  0.63830991  0.84106930     0.15400
C2022       C  0.96647391  0.63775021  0.83913172    -0.19100
C2023       C  0.01247141  0.62593833  0.82020659    -0.20900
C2024       C  0.04154432  0.62876364  0.82114339    -0.13500
C2025       C  0.05428952  0.64426919  0.84275261     0.03200
C2026       C  0.03784864  0.65548204  0.86437018    -0.25600
H2027       H  0.95109033  0.67364904  0.89937300     0.08300
H2028       H  0.00187478  0.67484348  0.90269343     0.11900
H2029       H  0.95652318  0.62785187  0.82122783     0.11800
H2030       H  0.00300645  0.61478563  0.80279943     0.11500
H2031       H  0.05396885  0.61990668  0.80427530     0.12100
H2032       H  0.04766456  0.66714648  0.88126719     0.14000
C2033       C  0.85719583  0.64546839  0.95006460    -0.06000
C2034       C  0.84003816  0.62531573  0.96260412    -0.05900
C2035       C  0.84069345  0.62134375  0.99150898    -0.24100
C2036       C  0.85865554  0.63733050  0.00828227     0.18100
C2037       C  0.87692734  0.65675318  0.99571843     0.15400
C2038       C  0.87606481  0.66072170  0.96667362    -0.19100
C2039       C  0.89506897  0.67253303  0.01252969    -0.20900
C2040       C  0.89416737  0.67005387  0.04163151    -0.13500
C2041       C  0.87503119  0.65184417  0.05432117     0.03200
C2042       C  0.85786681  0.63496818  0.03747463    -0.25600
H2043       H  0.82539856  0.61324114  0.95017035     0.08300
H2044       H  0.82667990  0.60626202  0.00080153     0.11900
H2045       H  0.88959761  0.67609201  0.95710716     0.11800
H2046       H  0.90932487  0.68738778  0.00324071     0.11500
H2047       H  0.90755991  0.68334888  0.05423378     0.12100
H2048       H  0.84313948  0.62077336  0.04709386     0.14000
C2049       C  0.78434928  0.63789028  0.79302404    -0.06000
C2050       C  0.75665127  0.63951984  0.80302027    -0.05900
C2051       C  0.73393839  0.63740680  0.78472616    -0.24100
C2052       C  0.73836881  0.63384637  0.75595058     0.18100
C2053       C  0.76605062  0.63195008  0.74557144     0.15400
C2054       C  0.78889139  0.63380182  0.76418243    -0.19100
C2055       C  0.77037188  0.62874112  0.71669000    -0.20900
C2056       C  0.74758066  0.62821259  0.69825300    -0.13500
C2057       C  0.71997873  0.63060804  0.70832831     0.03200
C2058       C  0.71555669  0.63287455  0.73735280    -0.25600
H2059       H  0.75244240  0.64246248  0.82514534     0.08300
H2060       H  0.71289685  0.63890021  0.79307405     0.11900
H2061       H  0.81008941  0.63253229  0.75618835     0.11800
H2062       H  0.79138781  0.62720094  0.70829491     0.11500
H2063       H  0.75162562  0.62641079  0.67598395     0.12100
H2064       H  0.69443428  0.63490671  0.74542187     0.14000
C2065       C  0.55536706  0.86293374  0.86246001    -0.06000
C2066       C  0.54228667  0.84836882  0.88432211    -0.05900
C2067       C  0.51322663  0.84535525  0.88471244    -0.24100
C2068       C  0.49676483  0.85697236  0.86331478     0.18100
C2069       C  0.50956759  0.87315557  0.84223165     0.15400
C2070       C  0.53875618  0.87605105  0.84195417    -0.19100
C2071       C  0.49306407  0.88526425  0.82113878    -0.20900
C2072       C  0.46428224  0.88048704  0.82029703    -0.13500
C2073       C  0.45161733  0.86325800  0.84031319     0.03200
C2074       C  0.46787923  0.85196692  0.86212169    -0.25600
H2075       H  0.55461384  0.83810858  0.90041281     0.08300
H2076       H  0.50373869  0.83316992  0.90121868     0.11900
H2077       H  0.54859659  0.88755544  0.82514662     0.11800
H2078       H  0.50249274  0.89791515  0.80495571     0.11500
H2079       H  0.45204386  0.88953206  0.80342406     0.12100
H2080       H  0.45811325  0.83905322  0.87791644     0.14000
C2081       C  0.64666264  0.95649787  0.84830612    -0.06000
C2082       C  0.62834720  0.96863855  0.82854827    -0.05900
C2083       C  0.62525227  0.99772673  0.82670593    -0.24100
C2084       C  0.64015889  0.01539576  0.84481726     0.18100
C2085       C  0.65817985  0.00345610  0.86518404     0.15400
C2086       C  0.66156905  0.97413276  0.86661473    -0.19100
C2087       C  0.67269367  0.02108851  0.88362370    -0.20900
C2088       C  0.66999682  0.05018057  0.88147958    -0.13500
C2089       C  0.65292519  0.06243159  0.86067011     0.03200
C2090       C  0.63770704  0.04476218  0.84260409    -0.25600
H2091       H  0.61672209  0.95558587  0.81405154     0.08300
H2092       H  0.61130328  0.00639576  0.81098358     0.11900
H2093       H  0.67563846  0.96506095  0.88201835     0.11800
H2094       H  0.68645449  0.01239678  0.89949907     0.11500
H2095       H  0.68203752  0.06313316  0.89571516     0.12100
H2096       H  0.62438774  0.05380872  0.82654266     0.14000
C2097       C  0.65402040  0.85338730  0.05613815    -0.06000
C2098       C  0.63720259  0.83295591  0.04320988    -0.05900
C2099       C  0.63301373  0.83287452  0.01435662    -0.24100
C2100       C  0.64551854  0.85324748  0.99770901     0.18100
C2101       C  0.66198700  0.87438535  0.01028010     0.15400
C2102       C  0.66621768  0.87432529  0.03953555    -0.19100
C2103       C  0.67437414  0.89470096  0.99320574    -0.20900
C2104       C  0.67150534  0.89323538  0.96396684    -0.13500
C2105       C  0.65608878  0.87151545  0.95137513     0.03200
C2106       C  0.64248521  0.85212496  0.96856014    -0.25600
H2107       H  0.62758175  0.81654988  0.05538552     0.08300
H2108       H  0.62033326  0.81654781  0.00500654     0.11900
H2109       H  0.67908912  0.89027950  0.04926731     0.11800
H2110       H  0.68690107  0.91122690  0.00238444     0.11500
H2111       H  0.68213072  0.90852121  0.95119586     0.12100
H2112       H  0.63034405  0.83537023  0.95921848     0.14000
C2113       C  0.63272283  0.72500385  0.71341432    -0.06000
C2114       C  0.63674864  0.75220911  0.70311638    -0.05900
C2115       C  0.63675460  0.77520894  0.72119967    -0.24100
C2116       C  0.63231861  0.77149317  0.74991438     0.18100
C2117       C  0.62810602  0.74426315  0.76060808     0.15400
C2118       C  0.62868347  0.72106338  0.74229368    -0.19100
C2119       C  0.62331584  0.74082661  0.78938601    -0.20900
C2120       C  0.62289314  0.76410489  0.80735872    -0.13500
C2121       C  0.62743664  0.79117753  0.79687783     0.03200
C2122       C  0.63208739  0.79464223  0.76805729    -0.25600
H2123       H  0.64024646  0.75567763  0.68097385     0.08300
H2124       H  0.64010579  0.79592196  0.71269280     0.11900
H2125       H  0.62553004  0.70013260  0.75035752     0.11800
H2126       H  0.62000038  0.72015874  0.79800052     0.11500
H2127       H  0.61951522  0.76085822  0.82954236     0.12100
H2128       H  0.63564613  0.81538869  0.75968468     0.14000
C2129       C  0.71169014  0.79187655  0.87966171    -0.06000
C2130       C  0.70155304  0.76423232  0.88054125    -0.05900
C2131       C  0.71992271  0.74138387  0.88156747    -0.24100
C2132       C  0.74887109  0.74563091  0.88151106     0.18100
C2133       C  0.75933287  0.77330032  0.88076454     0.15400
C2134       C  0.74071210  0.79624379  0.88004836    -0.19100
C2135       C  0.78827225  0.77754353  0.88022784    -0.20900
C2136       C  0.80664198  0.75468021  0.87998918    -0.13500
C2137       C  0.79651728  0.72703932  0.88050114     0.03200
C2138       C  0.76750345  0.72268086  0.88160850    -0.25600
H2139       H  0.67927073  0.76018313  0.88026219     0.08300
H2140       H  0.71146739  0.72038503  0.88205705     0.11900
H2141       H  0.74879878  0.81738257  0.87910693     0.11800
H2142       H  0.79671657  0.79854122  0.87959241     0.11500
H2143       H  0.82890945  0.75870167  0.87910378     0.12100
H2144       H  0.75941693  0.70151469  0.88170495     0.14000
C2145       C  0.85089994  0.86949495  0.55645787    -0.06000
C2146       C  0.83070864  0.88702236  0.54395891    -0.05900
C2147       C  0.82954854  0.88991709  0.51480726    -0.24100
C2148       C  0.84880471  0.87560353  0.49770764     0.18100
C2149       C  0.87013597  0.85918281  0.51027522     0.15400
C2150       C  0.87093264  0.85608357  0.53948703    -0.19100
C2151       C  0.88985057  0.84542240  0.49338291    -0.20900
C2152       C  0.88773039  0.84679424  0.46427816    -0.13500
C2153       C  0.86570019  0.86172733  0.45142883     0.03200
C2154       C  0.84661461  0.87667745  0.46831363    -0.25600
H2155       H  0.81512488  0.89765623  0.55667446     0.08300
H2156       H  0.81322356  0.90283229  0.50562514     0.11900
H2157       H  0.88684542  0.84285047  0.54898982     0.11800
H2158       H  0.90650752  0.83300165  0.50266264     0.11500
H2159       H  0.90280134  0.83514798  0.45181879     0.12100
H2160       H  0.82972534  0.88848991  0.45865183     0.14000
C2161       C  0.95279183  0.85177881  0.63734252    -0.06000
C2162       C  0.96420029  0.83195047  0.61861677    -0.05900
C2163       C  0.99313883  0.83000226  0.61464427    -0.24100
C2164       C  0.01122596  0.84803292  0.62912564     0.18100
C2165       C  0.99993857  0.86865714  0.64732871     0.15400
C2166       C  0.97084206  0.87028283  0.65146573    -0.19100
C2167       C  0.01800394  0.88691281  0.66153249    -0.20900
C2168       C  0.04699805  0.88417401  0.65848739    -0.13500
C2169       C  0.05853838  0.86301527  0.64130902     0.03200
C2170       C  0.04040571  0.84532744  0.62624662    -0.25600
H2171       H  0.95077276  0.81733348  0.60764335     0.08300
H2172       H  0.00139377  0.81409866  0.60056306     0.11900
H2173       H  0.96227937  0.88572335  0.66589926     0.11800
H2174       H  0.00973626  0.90296673  0.67543841     0.11500
H2175       H  0.06042180  0.89808757  0.67035337     0.12100
H2176       H  0.04897653  0.82901218  0.61282004     0.14000
C2177       C  0.86959262  0.95330363  0.65455312    -0.06000
C2178       C  0.88579293  0.96653619  0.67527903    -0.05900
C2179       C  0.88790911  0.99569974  0.67606227    -0.24100
C2180       C  0.87411938  0.01205825  0.65591091     0.18100
C2181       C  0.85907506  0.99881998  0.63403806     0.15400
C2182       C  0.85676258  0.96953119  0.63358885    -0.19100
C2183       C  0.84573995  0.01515941  0.61359522    -0.20900
C2184       C  0.84593607  0.04434587  0.61569624    -0.13500
C2185       C  0.85935610  0.05770526  0.63834933     0.03200
C2186       C  0.87419819  0.04139684  0.65790900    -0.25600
H2187       H  0.89581085  0.95438257  0.69163988     0.08300
H2188       H  0.89969260  0.00547822  0.69285794     0.11900
H2189       H  0.84445121  0.95940423  0.61736516     0.11800
H2190       H  0.83441198  0.00537289  0.59648744     0.11500
H2191       H  0.83454097  0.05640716  0.60018303     0.12100
H2192       H  0.88489213  0.05144170  0.67529064     0.14000
C2193       C  0.78526031  0.79947285  0.63280315    -0.06000
C2194       C  0.75821691  0.80972198  0.63874803    -0.05900
C2195       C  0.73526211  0.79171221  0.63908480    -0.24100
C2196       C  0.73879977  0.76310355  0.63312593     0.18100
C2197       C  0.76577760  0.75258377  0.62668270     0.15400
C2198       C  0.78887327  0.77075225  0.62685774    -0.19100
C2199       C  0.76917683  0.72404470  0.62024430    -0.20900
C2200       C  0.74619457  0.70601359  0.62058941    -0.13500
C2201       C  0.71936321  0.71608552  0.62759925     0.03200
C2202       C  0.71584987  0.74482871  0.63366786    -0.25600
H2203       H  0.75486006  0.83168255  0.64361364     0.08300
H2204       H  0.71473853  0.80016896  0.64405698     0.11900
H2205       H  0.80958833  0.76258991  0.62216398     0.11800
H2206       H  0.78966348  0.71561323  0.61509666     0.11500
H2207       H  0.74954055  0.68403582  0.61583276     0.12100
H2208       H  0.69528496  0.75300394  0.63897171     0.14000
C2209       C  0.88237084  0.72427659  0.79471813    -0.06000
C2210       C  0.88806840  0.75133907  0.80489577    -0.05900
C2211       C  0.89033609  0.77382260  0.78641878    -0.24100
C2212       C  0.88702272  0.76951776  0.75750255     0.18100
C2213       C  0.88258077  0.74211343  0.74708486     0.15400
C2214       C  0.88024108  0.71973759  0.76571869    -0.19100
C2215       C  0.87968909  0.73760023  0.71822253    -0.20900
C2216       C  0.87987215  0.76018659  0.69986344    -0.13500
C2217       C  0.88282852  0.78768778  0.71005027     0.03200
C2218       C  0.88712174  0.79218164  0.73889814    -0.25600
H2219       H  0.88995309  0.75527430  0.82720199     0.08300
H2220       H  0.89400583  0.79463096  0.79477666     0.11900
H2221       H  0.87624520  0.69886068  0.75764403     0.11800
H2222       H  0.87654032  0.71668427  0.70990493     0.11500
H2223       H  0.87668714  0.75616506  0.67772026     0.12100
H2224       H  0.88977615  0.81329157  0.74692882     0.14000
C2225       C  0.80055127  0.88041517  0.72420746    -0.06000
C2226       C  0.81056068  0.87772511  0.75182197    -0.05900
C2227       C  0.79187958  0.87657618  0.77436743    -0.24100
C2228       C  0.76288369  0.87823217  0.76967356     0.18100
C2229       C  0.75274297  0.88150366  0.74201297     0.15400
C2230       C  0.77155532  0.88260703  0.71957704    -0.19100
C2231       C  0.72388182  0.88325968  0.73710742    -0.20900
C2232       C  0.70511834  0.88179165  0.75936936    -0.13500
C2233       C  0.71478760  0.87846691  0.78701721     0.03200
C2234       C  0.74382361  0.87658498  0.79203798    -0.25600
H2235       H  0.83280145  0.87580903  0.75593222     0.08300
H2236       H  0.80008914  0.87409705  0.79541224     0.11900
H2237       H  0.76353065  0.88476332  0.69840485     0.11800
H2238       H  0.71578760  0.88570347  0.71600932     0.11500
H2239       H  0.68291415  0.88312901  0.75486438     0.12100
H2240       H  0.75157168  0.87402765  0.81325917     0.14000
loop_ 
_geom_bond_atom_site_label_1 
_geom_bond_atom_site_label_2 
_geom_bond_distance 
_geom_bond_site_symmetry_2 
_ccdc_geom_bond_type 
O1           C16   1.257       .  A
O1           Al9   1.888       .  S
C2           O12   1.257       .  A
C2            O3   1.259       .  A
C2         C2217   1.475       .  S
O3           Al5   1.897       .  S
O4            C6   1.258       .  A
O4           Al5   1.900       .  S
Al5          O13   1.892       .  S
Al5          O15   1.907       .  S
Al5          O14   1.801       .  S
C6           O19   1.260       .  A
C6         C2193   1.485       .  S
O7           C17   1.256       .  A
O7           Al9   1.879       .  S
O8           C21   1.257       .  A
O8          Al18   1.889       .  S
Al9          O22   1.902       .  S
Al9          O19   1.907       .  S
Al9          O14   1.801       .  S
O10          C17   1.260       .  A
O10         Al18   1.914       .  S
O11          C20   1.261       .  A
O11         Al18   1.909       .  S
O12         Al18   1.886       .  S
O13          C20   1.259       .  A
O14         Al18   1.806       .  S
O15          C16   1.261       .  A
C16        C2145   1.477       .  S
C17        C2225   1.480       .  S
C20        C2161   1.481       .  S
C21          O22   1.260       .  A
C21        C2177   1.474       .  S
O23          C38   1.259       .  A
O23         Al31   1.899       .  S
C24          O34   1.259       .  A
C24          O25   1.264       .  A
C24        C2121   1.478       .  S
O25         Al27   1.924       .  S
O26          C28   1.256       .  A
O26         Al27   1.864       .  S
Al27         O35   1.886       .  S
Al27         O37   1.903       .  S
Al27         O36   1.786       .  S
C28          O41   1.270       .  A
C28        C2129   1.482       .  S
O29          C39   1.257       .  A
O29         Al31   1.895       .  S
O30          C43   1.261       .  A
O30         Al40   1.882       .  S
Al31         O44   1.948       .  S
Al31         O41   1.946       .  S
Al31         O36   1.787       .  S
O32          C39   1.261       .  A
O32         Al40   1.909       .  S
O33          C42   1.265       .  A
O33         Al40   1.924       .  S
O34         Al40   1.884       .  S
O35          C42   1.258       .  A
O36         Al40   1.782       .  S
O37          C38   1.261       .  A
C38        C2105   1.481       .  S
C39        C2233   1.481       .  S
C42        C2065   1.478       .  S
C43          O44   1.271       .  A
C43        C2081   1.486       .  S
O45          C60   1.257       .  A
O45         Al53   1.870       .  S
C46          O56   1.254       .  A
C46          O47   1.265       .  A
C46        C2049   1.483       .  S
O47         Al49   1.938       .  S
O48          C50   1.259       .  A
O48         Al49   1.883       .  S
Al49         O57   1.867       .  S
Al49         O59   1.939       .  S
Al49         O58   1.783       .  S
C50          O63   1.262       .  A
C50        C2209   1.473       .  S
O51          C61   1.258       .  A
O51         Al53   1.865       .  S
O52          C65   1.253       .  A
O52         Al62   1.874       .  S
Al53         O66   1.908       .  S
Al53         O63   1.917       .  S
Al53         O58   1.783       .  S
O54          C61   1.271       .  A
O54         Al62   1.945       .  S
O55          C64   1.268       .  A
O55         Al62   1.937       .  S
O56         Al62   1.867       .  S
O57          C64   1.257       .  A
O58         Al62   1.782       .  S
O59          C60   1.268       .  A
C60        C2017   1.476       .  S
C61        C2137   1.481       .  S
C64        C2001   1.480       .  S
C65          O66   1.259       .  A
C65        C2033   1.470       .  S
O67          C82   1.260       .  A
O67         Al75   1.914       .  S
C68          O78   1.253       .  A
C68          O69   1.252       .  A
C68        C2113   1.475       .  S
O69         Al71   1.889       .  S
O70          C72   1.264       .  A
O70         Al71   1.887       .  S
Al71         O79   1.875       .  S
Al71         O81   1.878       .  S
Al71         O80   1.789       .  S
C72          O85   1.274       .  A
C72        C2201   1.486       .  S
O73          C83   1.258       .  A
O73         Al75   1.880       .  S
O74          C87   1.257       .  A
O74         Al84   1.889       .  S
Al75         O88   1.931       .  S
Al75         O85   1.949       .  S
Al75         O80   1.786       .  S
O76          C83   1.265       .  A
O76         Al84   1.918       .  S
O77          C86   1.274       .  A
O77         Al84   1.941       .  S
O78         Al84   1.903       .  S
O79          C86   1.262       .  A
O80         Al84   1.788       .  S
O81          C82   1.253       .  A
C82        C1993   1.474       .  S
C83        C2057   1.482       .  S
C86        C1953   1.481       .  S
C87          O88   1.264       .  A
C87        C1969   1.493       .  S
O89         C104   1.262       .  A
O89         Al97   1.922       .  S
C90         O100   1.265       .  A
C90          O91   1.260       .  A
C90        C1929   1.495       .  S
O91         Al93   1.909       .  S
O92          C94   1.258       .  A
O92         Al93   1.873       .  S
Al93        O101   1.882       .  S
Al93        O103   1.892       .  S
Al93        O102   1.789       .  S
C94         O107   1.263       .  A
C94        C1905   1.468       .  S
O95         C105   1.262       .  A
O95         Al97   1.917       .  S
O96         C109   1.268       .  A
O96        Al106   1.925       .  S
Al97        O110   1.893       .  S
Al97        O107   1.906       .  S
Al97        O102   1.790       .  S
O98         C105   1.259       .  A
O98        Al106   1.903       .  S
O99         C108   1.266       .  A
O99        Al106   1.926       .  S
O100       Al106   1.932       .  S
O101        C108   1.258       .  A
O102       Al106   1.789       .  S
O103        C104   1.257       .  A
C104       C1873   1.488       .  S
C105       C1945   1.489       .  S
C108       C2185   1.479       .  S
C109        O110   1.262       .  A
C109       C1889   1.487       .  S
O111        C126   1.270       .  A
O111       Al119   1.948       .  S
C112        O122   1.264       .  A
C112        O113   1.260       .  A
C112       C1841   1.489       .  S
O113       Al115   1.896       .  S
O114        C116   1.258       .  A
O114       Al115   1.903       .  S
Al115       O123   1.901       .  S
Al115       O125   1.891       .  S
Al115       O124   1.790       .  S
C116        O129   1.254       .  A
C116       C1857   1.473       .  S
O117        C127   1.270       .  A
O117       Al119   1.943       .  S
O118        C131   1.263       .  A
O118       Al128   1.925       .  S
Al119       O132   1.895       .  S
Al119       O129   1.875       .  S
Al119       O124   1.788       .  S
O120        C127   1.261       .  A
O120       Al128   1.887       .  S
O121        C130   1.264       .  A
O121       Al128   1.903       .  S
O122       Al128   1.932       .  S
O123        C130   1.262       .  A
O124       Al128   1.792       .  S
O125        C126   1.261       .  A
C126       C1825   1.496       .  S
C127       C1937   1.490       .  S
C130       C2009   1.476       .  S
C131        O132   1.257       .  A
C131       C1809   1.489       .  S
O133        C148   1.259       .  A
O133       Al141   1.891       .  S
C134        O144   1.262       .  A
C134        O135   1.257       .  A
C134       C1921   1.488       .  S
O135       Al137   1.897       .  S
O136        C138   1.256       .  A
O136       Al137   1.881       .  S
Al137       O145   1.882       .  S
Al137       O147   1.916       .  S
Al137       O146   1.788       .  S
C138        O151   1.259       .  A
C138       C1865   1.473       .  S
O139        C149   1.260       .  A
O139       Al141   1.877       .  S
O140        C153   1.265       .  A
O140       Al150   1.938       .  S
Al141       O154   1.882       .  S
Al141       O151   1.911       .  S
Al141       O146   1.790       .  S
O142        C149   1.270       .  A
O142       Al150   1.938       .  S
O143        C152   1.271       .  A
O143       Al150   1.944       .  S
O144       Al150   1.926       .  S
O145        C152   1.261       .  A
O146       Al150   1.794       .  S
O147        C148   1.263       .  A
C148       C1777   1.478       .  S
C149       C1801   1.485       .  S
C152       C2089   1.490       .  S
C153        O154   1.256       .  A
C153       C1761   1.493       .  S
O155        C170   1.257       .  A
O155       Al163   1.874       .  S
C156        O166   1.258       .  A
C156        O157   1.268       .  A
C156       C1849   1.490       .  S
O157       Al159   1.947       .  S
O158        C160   1.255       .  A
O158       Al159   1.873       .  S
Al159       O167   1.882       .  S
Al159       O169   1.949       .  S
Al159       O168   1.790       .  S
C160        O173   1.261       .  A
C160       C1913   1.467       .  S
O161        C171   1.257       .  A
O161       Al163   1.877       .  S
O162        C175   1.264       .  A
O162       Al172   1.911       .  S
Al163       O176   1.904       .  S
Al163       O173   1.909       .  S
Al163       O168   1.785       .  S
O164        C171   1.268       .  A
O164       Al172   1.945       .  S
O165        C174   1.269       .  A
O165       Al172   1.956       .  S
O166       Al172   1.876       .  S
O167        C174   1.259       .  A
O168       Al172   1.788       .  S
O169        C170   1.269       .  A
C170       C1745   1.487       .  S
C171       C1793   1.482       .  S
C174       C1977   1.496       .  S
C175        O176   1.262       .  A
C175       C1729   1.483       .  S
O177        C192   1.259       .  A
O177       Al185   1.872       .  S
C178        O188   1.255       .  A
C178        O179   1.265       .  A
C178       C1697   1.471       .  S
O179       Al181   1.924       .  S
O180        C182   1.259       .  A
O180       Al181   1.895       .  S
Al181       O189   1.891       .  S
Al181       O191   1.926       .  S
Al181       O190   1.783       .  S
C182        O195   1.261       .  A
C182       C1713   1.477       .  S
O183        C193   1.257       .  A
O183       Al185   1.877       .  S
O184        C197   1.257       .  A
O184       Al194   1.879       .  S
Al185       O198   1.918       .  S
Al185       O195   1.908       .  S
Al185       O190   1.781       .  S
O186        C193   1.268       .  A
O186       Al194   1.941       .  S
O187        C196   1.265       .  A
O187       Al194   1.926       .  S
O188       Al194   1.860       .  S
O189        C196   1.260       .  A
O190       Al194   1.780       .  S
O191        C192   1.267       .  A
C192       C1673   1.470       .  S
C193       C1689   1.484       .  S
C196       C2169   1.484       .  S
C197        O198   1.264       .  A
C197       C1657   1.474       .  S
O199        C214   1.261       .  A
O199       Al207   1.914       .  S
C200        O210   1.258       .  A
C200        O201   1.255       .  A
C200       C1617   1.481       .  S
O201       Al203   1.896       .  S
O202        C204   1.261       .  A
O202       Al203   1.879       .  S
Al203       O211   1.881       .  S
Al203       O213   1.889       .  S
Al203       O212   1.789       .  S
C204        O217   1.267       .  A
C204       C1721   1.474       .  S
O205        C215   1.259       .  A
O205       Al207   1.892       .  S
O206        C219   1.259       .  A
O206       Al216   1.893       .  S
Al207       O220   1.917       .  S
Al207       O217   1.927       .  S
Al207       O212   1.788       .  S
O208        C215   1.262       .  A
O208       Al216   1.908       .  S
O209        C218   1.268       .  A
O209       Al216   1.925       .  S
O210       Al216   1.909       .  S
O211        C218   1.261       .  A
O212       Al216   1.786       .  S
O213        C214   1.256       .  A
C214       C1585   1.479       .  S
C215       C1641   1.482       .  S
C218       C2073   1.473       .  S
C219        O220   1.263       .  A
C219       C1601   1.485       .  S
O221        C236   1.257       .  A
O221       Al229   1.875       .  S
C222        O232   1.255       .  A
C222        O223   1.264       .  A
C222       C1705   1.467       .  S
O223       Al225   1.921       .  S
O224        C226   1.254       .  A
O224       Al225   1.866       .  S
Al225       O233   1.873       .  S
Al225       O235   1.932       .  S
Al225       O234   1.783       .  S
C226        O239   1.266       .  A
C226       C1569   1.476       .  S
O227        C237   1.258       .  A
O227       Al229   1.878       .  S
O228        C241   1.256       .  A
O228       Al238   1.873       .  S
Al229       O242   1.926       .  S
Al229       O239   1.940       .  S
Al229       O234   1.784       .  S
O230        C237   1.266       .  A
O230       Al238   1.933       .  S
O231        C240   1.265       .  A
O231       Al238   1.921       .  S
O232       Al238   1.866       .  S
O233        C240   1.256       .  A
O234       Al238   1.783       .  S
O235        C236   1.266       .  A
C236       C1537   1.479       .  S
C237       C1633   1.478       .  S
C240       C2025   1.469       .  S
C241        O242   1.266       .  A
C241       C1553   1.474       .  S
O243        C258   1.265       .  A
O243       Al251   1.916       .  S
C244        O254   1.270       .  A
C244        O245   1.262       .  A
C244       C1625   1.480       .  S
O245       Al247   1.881       .  S
O246        C248   1.258       .  A
O246       Al247   1.907       .  S
Al247       O255   1.882       .  S
Al247       O257   1.893       .  S
Al247       O256   1.786       .  S
C248        O261   1.260       .  A
C248       C1577   1.477       .  S
O249        C259   1.257       .  A
O249       Al251   1.900       .  S
O250        C263   1.269       .  A
O250       Al260   1.935       .  S
Al251       O264   1.884       .  S
Al251       O261   1.901       .  S
Al251       O256   1.781       .  S
O252        C259   1.258       .  A
O252       Al260   1.902       .  S
O253        C262   1.260       .  A
O253       Al260   1.917       .  S
O254       Al260   1.932       .  S
O255        C262   1.254       .  A
O256       Al260   1.785       .  S
O257        C258   1.263       .  A
C258       C1505   1.475       .  S
C259       C1681   1.485       .  S
C262       C1961   1.482       .  S
C263        O264   1.262       .  A
C263       C1529   1.486       .  S
O265        C280   1.269       .  A
O265       Al273   1.927       .  S
C266        O276   1.258       .  A
C266        O267   1.262       .  A
C266       C1473   1.479       .  S
O267       Al269   1.914       .  S
O268        C270   1.255       .  A
O268       Al269   1.873       .  S
Al269       O277   1.879       .  S
Al269       O279   1.897       .  S
Al269       O278   1.787       .  S
C270        O283   1.264       .  A
C270       C1465   1.477       .  S
O271        C281   1.265       .  A
O271       Al273   1.917       .  S
O272        C285   1.260       .  A
O272       Al282   1.889       .  S
Al273       O286   1.945       .  S
Al273       O283   1.928       .  S
Al273       O278   1.794       .  S
O274        C281   1.261       .  A
O274       Al282   1.902       .  S
O275        C284   1.260       .  A
O275       Al282   1.906       .  S
O276       Al282   1.887       .  S
O277        C284   1.255       .  A
O278       Al282   1.785       .  S
O279        C280   1.262       .  A
C280       C1897   1.486       .  S
C281       C1497   1.482       .  S
C284       C1665   1.474       .  S
C285        O286   1.267       .  A
C285       C1449   1.490       .  S
O287        C302   1.265       .  A
O287       Al295   1.919       .  S
C288        O298   1.257       .  A
C288        O289   1.260       .  A
C288       C1433   1.474       .  S
O289       Al291   1.904       .  S
O290        C292   1.259       .  A
O290       Al291   1.887       .  S
Al291       O299   1.878       .  S
Al291       O301   1.902       .  S
Al291       O300   1.781       .  S
C292        O305   1.263       .  A
C292       C1409   1.475       .  S
O293        C303   1.265       .  A
O293       Al295   1.912       .  S
O294        C307   1.258       .  A
O294       Al304   1.882       .  S
Al295       O308   1.912       .  S
Al295       O305   1.914       .  S
Al295       O300   1.785       .  S
O296        C303   1.263       .  A
O296       Al304   1.911       .  S
O297        C306   1.264       .  A
O297       Al304   1.917       .  S
O298       Al304   1.889       .  S
O299        C306   1.258       .  A
O300       Al304   1.784       .  S
O301        C302   1.261       .  A
C302       C1737   1.484       .  S
C303       C1489   1.484       .  S
C306       C1513   1.474       .  S
C307        O308   1.262       .  A
C307       C1393   1.476       .  S
O309        C324   1.265       .  A
O309       Al317   1.920       .  S
C310        O320   1.258       .  A
C310        O311   1.261       .  A
C310       C1481   1.476       .  S
O311       Al313   1.905       .  S
O312        C314   1.257       .  A
O312       Al313   1.887       .  S
Al313       O321   1.900       .  S
Al313       O323   1.900       .  S
Al313       O322   1.801       .  S
C314        O327   1.258       .  A
C314       C1417   1.472       .  S
O315        C325   1.261       .  A
O315       Al317   1.921       .  S
O316        C329   1.260       .  A
O316       Al326   1.891       .  S
Al317       O330   1.911       .  S
Al317       O327   1.893       .  S
Al317       O322   1.799       .  S
O318        C325   1.258       .  A
O318       Al326   1.903       .  S
O319        C328   1.257       .  A
O319       Al326   1.895       .  S
O320       Al326   1.887       .  S
O321        C328   1.259       .  A
O322       Al326   1.798       .  S
O323        C324   1.260       .  A
C324       C1769   1.492       .  S
C325       C1385   1.493       .  S
C328       C1593   1.479       .  S
C329        O330   1.263       .  A
C329       C1361   1.481       .  S
O331        C346   1.267       .  A
O331       Al339   1.932       .  S
C332        O342   1.255       .  A
C332        O333   1.259       .  A
C332       C1425   1.469       .  S
O333       Al335   1.905       .  S
O334        C336   1.256       .  A
O334       Al335   1.874       .  S
Al335       O343   1.881       .  S
Al335       O345   1.897       .  S
Al335       O344   1.785       .  S
C336        O349   1.266       .  A
C336       C1457   1.478       .  S
O337        C347   1.264       .  A
O337       Al339   1.912       .  S
O338        C351   1.258       .  A
O338       Al348   1.885       .  S
Al339       O352   1.931       .  S
Al339       O349   1.933       .  S
Al339       O344   1.792       .  S
O340        C347   1.266       .  A
O340       Al348   1.923       .  S
O341        C350   1.265       .  A
O341       Al348   1.924       .  S
O342       Al348   1.878       .  S
O343        C350   1.258       .  A
O344       Al348   1.786       .  S
O345        C346   1.262       .  A
C346       C1817   1.491       .  S
C347       C1377   1.490       .  S
C350       C1545   1.479       .  S
C351        O352   1.265       .  A
C351       C1353   1.486       .  S
O353        C368   1.256       .  A
O353       Al361   1.893       .  S
C354        O364   1.258       .  A
C354        O355   1.262       .  A
C354       C1305   1.483       .  S
O355       Al357   1.927       .  S
O356        C358   1.258       .  A
O356       Al357   1.860       .  S
Al357       O365   1.874       .  S
Al357       O367   1.919       .  S
Al357       O366   1.784       .  S
C358        O371   1.272       .  A
C358       C1337   1.478       .  S
O359        C369   1.254       .  A
O359       Al361   1.869       .  S
O360        C373   1.259       .  A
O360       Al370   1.878       .  S
Al361       O374   1.930       .  S
Al361       O371   1.949       .  S
Al361       O366   1.783       .  S
O362        C369   1.264       .  A
O362       Al370   1.932       .  S
O363        C372   1.271       .  A
O363       Al370   1.945       .  S
O364       Al370   1.891       .  S
O365        C372   1.260       .  A
O366       Al370   1.785       .  S
O367        C368   1.260       .  A
C368       C1273   1.484       .  S
C369       C1313   1.481       .  S
C372       C2153   1.480       .  S
C373        O374   1.268       .  A
C373       C1281   1.481       .  S
O375        C390   1.259       .  A
O375       Al383   1.887       .  S
C376        O386   1.259       .  A
C376        O377   1.268       .  A
C376       C1249   1.478       .  S
O377       Al379   1.935       .  S
O378        C380   1.252       .  A
O378       Al379   1.867       .  S
Al379       O387   1.874       .  S
Al379       O389   1.925       .  S
Al379       O388   1.792       .  S
C380        O393   1.263       .  A
C380       C1329   1.478       .  S
O381        C391   1.259       .  A
O381       Al383   1.894       .  S
O382        C395   1.260       .  A
O382       Al392   1.885       .  S
Al383       O396   1.926       .  S
Al383       O393   1.921       .  S
Al383       O388   1.788       .  S
O384        C391   1.260       .  A
O384       Al392   1.918       .  S
O385        C394   1.259       .  A
O385       Al392   1.905       .  S
O386       Al392   1.875       .  S
O387        C394   1.253       .  A
O388       Al392   1.794       .  S
O389        C390   1.265       .  A
C390       C1217   1.483       .  S
C391       C1233   1.484       .  S
C394       C2041   1.471       .  S
C395        O396   1.267       .  A
C395       C1201   1.478       .  S
O397        C412   1.261       .  A
O397       Al405   1.896       .  S
C398        O408   1.256       .  A
C398        O399   1.258       .  A
C398       C1257   1.484       .  S
O399       Al401   1.904       .  S
O400        C402   1.261       .  A
O400       Al401   1.903       .  S
Al401       O409   1.872       .  S
Al401       O411   1.917       .  S
Al401       O410   1.789       .  S
C402        O415   1.260       .  A
C402       C1193   1.478       .  S
O403        C413   1.261       .  A
O403       Al405   1.877       .  S
O404        C417   1.256       .  A
O404       Al414   1.901       .  S
Al405       O418   1.881       .  S
Al405       O415   1.905       .  S
Al405       O410   1.789       .  S
O406        C413   1.269       .  A
O406       Al414   1.932       .  S
O407        C416   1.268       .  A
O407       Al414   1.932       .  S
O408       Al414   1.893       .  S
O409        C416   1.260       .  A
O410       Al414   1.795       .  S
O411        C412   1.264       .  A
C412       C1161   1.480       .  S
C413       C1321   1.480       .  S
C416       C2097   1.480       .  S
C417        O418   1.254       .  A
C417       C1169   1.477       .  S
O419        C434   1.267       .  A
O419       Al427   1.947       .  S
C420        O430   1.263       .  A
C420        O421   1.254       .  A
C420       C1297   1.483       .  S
O421       Al423   1.875       .  S
O422        C424   1.268       .  A
O422       Al423   1.938       .  S
Al423       O431   1.938       .  S
Al423       O433   1.869       .  S
Al423       O432   1.778       .  S
C424        O437   1.257       .  A
C424       C1185   1.479       .  S
O425        C435   1.271       .  A
O425       Al427   1.958       .  S
O426        C439   1.264       .  A
O426       Al436   1.924       .  S
Al427       O440   1.892       .  S
Al427       O437   1.863       .  S
Al427       O432   1.781       .  S
O428        C435   1.259       .  A
O428       Al436   1.864       .  S
O429        C438   1.257       .  A
O429       Al436   1.862       .  S
O430       Al436   1.935       .  S
O431        C438   1.270       .  A
O432       Al436   1.779       .  S
O433        C434   1.254       .  A
C434       C1121   1.486       .  S
C435       C1241   1.482       .  S
C438       C1985   1.474       .  S
C439        O440   1.261       .  A
C439       C1137   1.480       .  S
O441        C456   1.265       .  A
O441       Al449   1.917       .  S
C442        O452   1.263       .  A
C442        O443   1.261       .  A
C442       C1073   1.484       .  S
O443       Al445   1.903       .  S
O444        C446   1.263       .  A
O444       Al445   1.916       .  S
Al445       O453   1.915       .  S
Al445       O455   1.889       .  S
Al445       O454   1.783       .  S
C446        O459   1.256       .  A
C446       C1089   1.475       .  S
O447        C457   1.265       .  A
O447       Al449   1.926       .  S
O448        C461   1.262       .  A
O448       Al458   1.920       .  S
Al449       O462   1.886       .  S
Al449       O459   1.881       .  S
Al449       O454   1.783       .  S
O450        C457   1.261       .  A
O450       Al458   1.881       .  S
O451        C460   1.263       .  A
O451       Al458   1.892       .  S
O452       Al458   1.917       .  S
O453        C460   1.265       .  A
O454       Al458   1.781       .  S
O455        C456   1.259       .  A
C456       C1177   1.479       .  S
C457       C1105   1.479       .  S
C460       C1785   1.477       .  S
C461        O462   1.257       .  A
C461       C1057   1.480       .  S
O463        C478   1.258       .  A
O463       Al471   1.880       .  S
C464        O474   1.257       .  A
C464        O465   1.261       .  A
C464       C1025   1.484       .  S
O465       Al467   1.919       .  S
O466        C468   1.258       .  A
O466       Al467   1.883       .  S
Al467       O475   1.880       .  S
Al467       O477   1.934       .  S
Al467       O476   1.789       .  S
C468        O481   1.262       .  A
C468       C1041   1.472       .  S
O469        C479   1.256       .  A
O469       Al471   1.862       .  S
O470        C483   1.259       .  A
O470       Al480   1.897       .  S
Al471       O484   1.910       .  S
Al471       O481   1.917       .  S
Al471       O476   1.787       .  S
O472        C479   1.268       .  A
O472       Al480   1.941       .  S
O473        C482   1.269       .  A
O473       Al480   1.936       .  S
O474       Al480   1.893       .  S
O475        C482   1.261       .  A
O476       Al480   1.788       .  S
O477        C478   1.266       .  A
C478       C1145   1.481       .  S
C479       C1113   1.480       .  S
C482       C1753   1.482       .  S
C483        O484   1.260       .  A
C483       C1017   1.485       .  S
O485        C500   1.261       .  A
O485       Al493   1.876       .  S
C486        O496   1.260       .  A
C486        O487   1.266       .  A
C486       C1033   1.482       .  S
O487       Al489   1.923       .  S
O488        C490   1.258       .  A
O488       Al489   1.911       .  S
Al489       O497   1.911       .  S
Al489       O499   1.949       .  S
Al489       O498   1.788       .  S
C490        O503   1.254       .  A
C490       C1097   1.477       .  S
O491        C501   1.262       .  A
O491       Al493   1.889       .  S
O492        C505   1.262       .  A
O492       Al502   1.912       .  S
Al493       O506   1.882       .  S
Al493       O503   1.883       .  S
Al493       O498   1.784       .  S
O494        C501   1.267       .  A
O494       Al502   1.928       .  S
O495        C504   1.261       .  A
O495       Al502   1.904       .  S
O496       Al502   1.885       .  S
O497        C504   1.263       .  A
O498       Al502   1.785       .  S
O499        C500   1.272       .  A
C500       C1289   1.484       .  S
C501        C993   1.477       .  S
C504       C1881   1.489       .  S
C505        O506   1.255       .  A
C505        C977   1.474       .  S
O507        C522   1.259       .  A
O507       Al515   1.878       .  S
C508        O518   1.258       .  A
C508        O509   1.266       .  A
C508       C1081   1.484       .  S
O509       Al511   1.931       .  S
O510        C512   1.258       .  A
O510       Al511   1.899       .  S
Al511       O519   1.916       .  S
Al511       O521   1.932       .  S
Al511       O520   1.793       .  S
C512        O525   1.257       .  A
C512       C1049   1.476       .  S
O513        C523   1.258       .  A
O513       Al515   1.890       .  S
O514        C527   1.263       .  A
O514       Al524   1.906       .  S
Al515       O528   1.898       .  S
Al515       O525   1.894       .  S
Al515       O520   1.789       .  S
O516        C523   1.263       .  A
O516       Al524   1.922       .  S
O517        C526   1.263       .  A
O517       Al524   1.916       .  S
O518       Al524   1.880       .  S
O519        C526   1.263       .  A
O520       Al524   1.786       .  S
O521        C522   1.268       .  A
C522       C1209   1.480       .  S
C523       C1001   1.481       .  S
C526       C1833   1.495       .  S
C527        O528   1.260       .  A
C527        C969   1.478       .  S
O529        C544   1.268       .  A
O529       Al537   1.932       .  S
C530        O540   1.264       .  A
C530        O531   1.258       .  A
C530        C953   1.486       .  S
O531       Al533   1.893       .  S
O532        C534   1.264       .  A
O532       Al533   1.919       .  S
Al533       O541   1.931       .  S
Al533       O543   1.888       .  S
Al533       O542   1.781       .  S
C534        O547   1.262       .  A
C534        C929   1.484       .  S
O535        C545   1.269       .  A
O535       Al537   1.942       .  S
O536        C549   1.264       .  A
O536       Al546   1.926       .  S
Al537       O550   1.912       .  S
Al537       O547   1.899       .  S
Al537       O542   1.778       .  S
O538        C545   1.255       .  A
O538       Al546   1.855       .  S
O539        C548   1.257       .  A
O539       Al546   1.868       .  S
O540       Al546   1.930       .  S
O541        C548   1.268       .  A
O542       Al546   1.777       .  S
O543        C544   1.260       .  A
C544        C897   1.482       .  S
C545        C921   1.471       .  S
C548        C985   1.472       .  S
C549        O550   1.264       .  A
C549       C1441   1.490       .  S
O551        C566   1.261       .  A
O551       Al559   1.915       .  S
C552        O562   1.257       .  A
C552        O553   1.257       .  A
C552        C945   1.487       .  S
O553       Al555   1.904       .  S
O554        C556   1.265       .  A
O554       Al555   1.907       .  S
Al555       O563   1.907       .  S
Al555       O565   1.901       .  S
Al555       O564   1.792       .  S
C556        O569   1.265       .  A
C556        C873   1.485       .  S
O557        C567   1.258       .  A
O557       Al559   1.891       .  S
O558        C571   1.259       .  A
O558       Al568   1.890       .  S
Al559       O572   1.911       .  S
Al559       O569   1.913       .  S
Al559       O564   1.796       .  S
O560        C567   1.257       .  A
O560       Al568   1.889       .  S
O561        C570   1.264       .  A
O561       Al568   1.904       .  S
O562       Al568   1.907       .  S
O563        C570   1.266       .  A
O564       Al568   1.795       .  S
O565        C566   1.257       .  A
C566        C849   1.486       .  S
C567        C889   1.477       .  S
C570        C961   1.481       .  S
C571        O572   1.262       .  A
C571       C1345   1.481       .  S
O573        C588   1.258       .  A
O573       Al581   1.883       .  S
C574        O584   1.260       .  A
C574        O575   1.266       .  A
C574        C841   1.484       .  S
O575       Al577   1.930       .  S
O576        C578   1.259       .  A
O576       Al577   1.889       .  S
Al577       O585   1.895       .  S
Al577       O587   1.911       .  S
Al577       O586   1.788       .  S
C578        O591   1.264       .  A
C578        C937   1.485       .  S
O579        C589   1.258       .  A
O579       Al581   1.892       .  S
O580        C593   1.261       .  A
O580       Al590   1.888       .  S
Al581       O594   1.921       .  S
Al581       O591   1.922       .  S
Al581       O586   1.790       .  S
O582        C589   1.259       .  A
O582       Al590   1.903       .  S
O583        C592   1.260       .  A
O583       Al590   1.908       .  S
O584       Al590   1.884       .  S
O585        C592   1.259       .  A
O586       Al590   1.788       .  S
O587        C588   1.262       .  A
C588        C817   1.476       .  S
C589        C881   1.472       .  S
C592       C1065   1.481       .  S
C593        O594   1.265       .  A
C593       C1369   1.479       .  S
O595        C610   1.257       .  A
O595       Al603   1.869       .  S
C596        O606   1.258       .  A
C596        O597   1.265       .  A
C596        C833   1.481       .  S
O597       Al599   1.924       .  S
O598        C600   1.259       .  A
O598       Al599   1.908       .  S
Al599       O607   1.898       .  S
Al599       O609   1.930       .  S
Al599       O608   1.791       .  S
C600        O613   1.259       .  A
C600        C865   1.482       .  S
O601        C611   1.256       .  A
O601       Al603   1.867       .  S
O602        C615   1.257       .  A
O602       Al612   1.889       .  S
Al603       O616   1.902       .  S
Al603       O613   1.900       .  S
Al603       O608   1.787       .  S
O604        C611   1.262       .  A
O604       Al612   1.921       .  S
O605        C614   1.261       .  A
O605       Al612   1.904       .  S
O606       Al612   1.887       .  S
O607        C614   1.260       .  A
O608       Al612   1.797       .  S
O609        C610   1.266       .  A
C610        C801   1.472       .  S
C611        C913   1.470       .  S
C614       C1009   1.481       .  S
C615        O616   1.260       .  A
C615       C1401   1.468       .  S
O617        C632   1.256       .  A
O617       Al625   1.879       .  S
C618        O628   1.262       .  A
C618        O619   1.263       .  A
C618        C769   1.482       .  S
O619       Al621   1.915       .  S
O620        C622   1.258       .  A
O620       Al621   1.881       .  S
Al621       O629   1.885       .  S
Al621       O631   1.911       .  S
Al621       O630   1.789       .  S
C622        O635   1.263       .  A
C622        C761   1.477       .  S
O623        C633   1.255       .  A
O623       Al625   1.874       .  S
O624        C637   1.265       .  A
O624       Al634   1.913       .  S
Al625       O638   1.912       .  S
Al625       O635   1.918       .  S
Al625       O630   1.786       .  S
O626        C633   1.263       .  A
O626       Al634   1.932       .  S
O627        C636   1.266       .  A
O627       Al634   1.932       .  S
O628       Al634   1.900       .  S
O629        C636   1.259       .  A
O630       Al634   1.793       .  S
O631        C632   1.261       .  A
C632       C1561   1.473       .  S
C633        C793   1.480       .  S
C636       C1225   1.485       .  S
C637        O638   1.265       .  A
C637        C857   1.488       .  S
O639        C654   1.262       .  A
O639       Al647   1.902       .  S
C640        O650   1.257       .  A
C640        O641   1.264       .  A
C640        C721   1.481       .  S
O641       Al643   1.928       .  S
O642        C644   1.264       .  A
O642       Al643   1.908       .  S
Al643       O651   1.908       .  S
Al643       O653   1.928       .  S
Al643       O652   1.783       .  S
C644        O657   1.266       .  A
C644        C737   1.485       .  S
O645        C655   1.259       .  A
O645       Al647   1.893       .  S
O646        C659   1.255       .  A
O646       Al656   1.876       .  S
Al647       O660   1.925       .  S
Al647       O657   1.918       .  S
Al647       O652   1.786       .  S
O648        C655   1.263       .  A
O648       Al656   1.912       .  S
O649        C658   1.263       .  A
O649       Al656   1.907       .  S
O650       Al656   1.886       .  S
O651        C658   1.265       .  A
O652       Al656   1.783       .  S
O653        C654   1.265       .  A
C654       C1521   1.488       .  S
C655        C785   1.480       .  S
C658       C1129   1.482       .  S
C659        O660   1.264       .  A
C659        C809   1.479       .  S
O661        C676   1.264       .  A
O661       Al669   1.918       .  S
C662        O672   1.267       .  A
C662        O663   1.258       .  A
C662        C777   1.481       .  S
O663       Al665   1.877       .  S
O664        C666   1.267       .  A
O664       Al665   1.936       .  S
Al665       O673   1.926       .  S
Al665       O675   1.881       .  S
Al665       O674   1.779       .  S
C666        O679   1.257       .  A
C666        C745   1.484       .  S
O667        C677   1.263       .  A
O667       Al669   1.917       .  S
O668        C681   1.268       .  A
O668       Al678   1.943       .  S
Al669       O682   1.881       .  S
Al669       O679   1.882       .  S
Al669       O674   1.781       .  S
O670        C677   1.258       .  A
O670       Al678   1.884       .  S
O671        C680   1.261       .  A
O671       Al678   1.894       .  S
O672       Al678   1.936       .  S
O673        C680   1.266       .  A
O674       Al678   1.780       .  S
O675        C676   1.259       .  A
C676       C1649   1.475       .  S
C677        C713   1.478       .  S
C680       C1265   1.483       .  S
C681        O682   1.258       .  A
C681        C905   1.486       .  S
O683        C698   1.261       .  A
O683       Al691   1.883       .  S
C684        O694   1.261       .  A
C684        O685   1.269       .  A
C684        C729   1.485       .  S
O685       Al687   1.939       .  S
O686        C688   1.254       .  A
O686       Al687   1.883       .  S
Al687       O695   1.899       .  S
Al687       O697   1.937       .  S
Al687       O696   1.795       .  S
C688        O701   1.257       .  A
C688        C753   1.478       .  S
O689        C699   1.260       .  A
O689       Al691   1.898       .  S
O690        C703   1.261       .  A
O690       Al700   1.893       .  S
Al691       O704   1.910       .  S
Al691       O701   1.899       .  S
Al691       O696   1.791       .  S
O692        C699   1.260       .  A
O692       Al700   1.909       .  S
O693        C702   1.255       .  A
O693       Al700   1.889       .  S
O694       Al700   1.878       .  S
O695        C702   1.256       .  A
O696       Al700   1.791       .  S
O697        C698   1.269       .  A
C698       C1609   1.488       .  S
C699        C705   1.479       .  S
C702       C1153   1.476       .  S
C703        O704   1.263       .  A
C703        C825   1.477       .  S
C705        C706   1.407       .  A
C705        C710   1.405       .  A
C706        C707   1.396       .  A
C706        H715   1.083       .  S
C707        C708   1.401       .  A
C707        H716   1.084       .  S
C708        C714   1.402       .  A
C708        C709   1.414       .  A
C709        C711   1.401       .  A
C709        C710   1.403       .  A
C710        H717   1.084       .  S
C711        C712   1.396       .  A
C711        H718   1.084       .  S
C712        C713   1.406       .  A
C712        H719   1.083       .  S
C713        C714   1.406       .  A
C714        H720   1.084       .  S
C721        C722   1.407       .  A
C721        C726   1.403       .  A
C722        C723   1.401       .  A
C722        H731   1.083       .  S
C723        C724   1.403       .  A
C723        H732   1.084       .  S
C724        C730   1.411       .  A
C724        C725   1.415       .  A
C725        C727   1.399       .  A
C725        C726   1.404       .  A
C726        H733   1.084       .  S
C727        C728   1.394       .  A
C727        H734   1.084       .  S
C728        C729   1.407       .  A
C728        H735   1.083       .  S
C729        C730   1.409       .  A
C730        H736   1.084       .  S
C737        C738   1.407       .  A
C737        C742   1.408       .  A
C738        C739   1.395       .  A
C738        H747   1.083       .  S
C739        C740   1.399       .  A
C739        H748   1.084       .  S
C740        C746   1.405       .  A
C740        C741   1.415       .  A
C741        C743   1.402       .  A
C741        C742   1.409       .  A
C742        H749   1.084       .  S
C743        C744   1.399       .  A
C743        H750   1.084       .  S
C744        C745   1.409       .  A
C744        H751   1.083       .  S
C745        C746   1.405       .  A
C746        H752   1.084       .  S
C753        C754   1.406       .  A
C753        C758   1.405       .  A
C754        C755   1.398       .  A
C754        H763   1.083       .  S
C755        C756   1.402       .  A
C755        H764   1.084       .  S
C756        C762   1.404       .  A
C756        C757   1.414       .  A
C757        C759   1.400       .  A
C757        C758   1.401       .  A
C758        H765   1.084       .  S
C759        C760   1.395       .  A
C759        H766   1.084       .  S
C760        C761   1.406       .  A
C760        H767   1.083       .  S
C761        C762   1.406       .  A
C762        H768   1.084       .  S
C769        C770   1.408       .  A
C769        C774   1.406       .  A
C770        C771   1.397       .  A
C770        H779   1.083       .  S
C771        C772   1.401       .  A
C771        H780   1.084       .  S
C772        C778   1.405       .  A
C772        C773   1.414       .  A
C773        C775   1.400       .  A
C773        C774   1.404       .  A
C774        H781   1.084       .  S
C775        C776   1.396       .  A
C775        H782   1.084       .  S
C776        C777   1.408       .  A
C776        H783   1.083       .  S
C777        C778   1.405       .  A
C778        H784   1.084       .  S
C785        C786   1.406       .  A
C785        C790   1.404       .  A
C786        C787   1.401       .  A
C786        H795   1.083       .  S
C787        C788   1.404       .  A
C787        H796   1.083       .  S
C788        C794   1.409       .  A
C788        C789   1.414       .  A
C789        C791   1.399       .  A
C789        C790   1.400       .  A
C790        H797   1.084       .  S
C791        C792   1.393       .  A
C791        H798   1.084       .  S
C792        C793   1.406       .  A
C792        H799   1.083       .  S
C793        C794   1.408       .  A
C794        H800   1.084       .  S
C801        C802   1.406       .  A
C801        C806   1.403       .  A
C802        C803   1.394       .  A
C802        H811   1.083       .  S
C803        C804   1.399       .  A
C803        H812   1.084       .  S
C804        C810   1.402       .  A
C804        C805   1.416       .  A
C805        C807   1.400       .  A
C805        C806   1.405       .  A
C806        H813   1.085       .  S
C807        C808   1.396       .  A
C807        H814   1.084       .  S
C808        C809   1.408       .  A
C808        H815   1.083       .  S
C809        C810   1.404       .  A
C810        H816   1.084       .  S
C817        C818   1.405       .  A
C817        C822   1.405       .  A
C818        C819   1.397       .  A
C818        H827   1.083       .  S
C819        C820   1.402   1_545  A
C819        H828   1.084       .  S
C820        C826   1.403       .  A
C820        C821   1.414   1_565  A
C821        C823   1.400   1_545  A
C821        C822   1.401       .  A
C822        H829   1.084       .  S
C823        C824   1.394       .  A
C823        H830   1.084   1_565  S
C824        C825   1.406       .  A
C824        H831   1.083       .  S
C825        C826   1.406       .  A
C826        H832   1.084       .  S
C833        C834   1.407       .  A
C833        C838   1.404       .  A
C834        C835   1.400       .  A
C834        H843   1.083       .  S
C835        C836   1.403       .  A
C835        H844   1.084       .  S
C836        C842   1.408       .  A
C836        C837   1.414       .  A
C837        C839   1.400       .  A
C837        C838   1.405       .  A
C838        H845   1.084       .  S
C839        C840   1.396       .  A
C839        H846   1.084       .  S
C840        C841   1.407       .  A
C840        H847   1.083       .  S
C841        C842   1.408       .  A
C842        H848   1.084       .  S
C849        C850   1.408       .  A
C849        C854   1.406       .  A
C850        C851   1.400       .  A
C850        H859   1.083       .  S
C851        C852   1.402       .  A
C851        H860   1.084       .  S
C852        C858   1.411       .  A
C852        C853   1.415       .  A
C853        C855   1.400       .  A
C853        C854   1.409       .  A
C854        H861   1.084       .  S
C855        C856   1.397       .  A
C855        H862   1.084       .  S
C856        C857   1.408       .  A
C856        H863   1.083       .  S
C857        C858   1.408       .  A
C858        H864   1.084       .  S
C865        C866   1.407       .  A
C865        C870   1.407       .  A
C866        C867   1.395       .  A
C866        H875   1.083       .  S
C867        C868   1.400       .  A
C867        H876   1.084       .  S
C868        C874   1.406       .  A
C868        C869   1.415       .  A
C869        C871   1.402       .  A
C869        C870   1.409       .  A
C870        H877   1.084       .  S
C871        C872   1.399       .  A
C871        H878   1.084       .  S
C872        C873   1.409       .  A
C872        H879   1.083       .  S
C873        C874   1.405       .  A
C874        H880   1.084       .  S
C881        C882   1.403       .  A
C881        C886   1.405       .  A
C882        C883   1.397       .  A
C882        H891   1.083       .  S
C883        C884   1.403       .  A
C883        H892   1.084       .  S
C884        C890   1.401       .  A
C884        C885   1.413       .  A
C885        C887   1.402       .  A
C885        C886   1.401       .  A
C886        H893   1.085       .  S
C887        C888   1.396       .  A
C887        H894   1.084       .  S
C888        C889   1.405       .  A
C888        H895   1.083       .  S
C889        C890   1.407       .  A
C890        H896   1.084       .  S
C897        C898   1.404       .  A
C897        C902   1.410       .  A
C898        C899   1.398       .  A
C898        H907   1.083       .  S
C899        C900   1.403   1_545  A
C899        H908   1.083       .  S
C900        C906   1.404       .  A
C900        C901   1.412   1_565  A
C901        C903   1.405   1_545  A
C901        C902   1.406       .  A
C902        H909   1.084       .  S
C903        C904   1.401       .  A
C903        H910   1.083   1_565  S
C904        C905   1.406       .  A
C904        H911   1.083       .  S
C905        C906   1.410       .  A
C906        H912   1.084       .  S
C913        C914   1.404       .  A
C913        C918   1.402       .  A
C914        C915   1.399       .  A
C914        H923   1.083       .  S
C915        C916   1.403       .  A
C915        H924   1.083       .  S
C916        C922   1.403       .  A
C916        C917   1.414       .  A
C917        C919   1.397       .  A
C917        C918   1.394       .  A
C918        H925   1.085       .  S
C919        C920   1.388       .  A
C919        H926   1.084       .  S
C920        C921   1.407       .  A
C920        H927   1.083       .  S
C921        C922   1.404       .  A
C922        H928   1.084       .  S
C929        C930   1.407       .  A
C929        C934   1.407       .  A
C930        C931   1.398       .  A
C930        H939   1.083       .  S
C931        C932   1.402       .  A
C931        H940   1.084       .  S
C932        C938   1.406       .  A
C932        C933   1.414       .  A
C933        C935   1.401       .  A
C933        C934   1.405       .  A
C934        H941   1.084       .  S
C935        C936   1.397       .  A
C935        H942   1.084       .  S
C936        C937   1.407       .  A
C936        H943   1.083       .  S
C937        C938   1.408       .  A
C938        H944   1.084       .  S
C945        C946   1.408       .  A
C945        C950   1.409       .  A
C946        C947   1.395       .  A
C946        H955   1.083       .  S
C947        C948   1.400       .  A
C947        H956   1.084       .  S
C948        C954   1.405       .  A
C948        C949   1.414       .  A
C949        C951   1.403       .  A
C949        C950   1.410       .  A
C950        H957   1.084       .  S
C951        C952   1.401       .  A
C951        H958   1.084       .  S
C952        C953   1.408       .  A
C952        H959   1.083       .  S
C953        C954   1.406       .  A
C954        H960   1.084       .  S
C961        C962   1.408       .  A
C961        C966   1.404       .  A
C962        C963   1.396       .  A
C962        H971   1.083       .  S
C963        C964   1.399   1_455  A
C963        H972   1.084       .  S
C964        C970   1.405       .  A
C964        C965   1.416   1_655  A
C965        C967   1.400   1_455  A
C965        C966   1.405       .  A
C966        H973   1.084       .  S
C967        C968   1.395       .  A
C967        H974   1.084   1_655  S
C968        C969   1.407       .  A
C968        H975   1.083       .  S
C969        C970   1.404       .  A
C970        H976   1.084       .  S
C977        C978   1.409       .  A
C977        C982   1.402       .  A
C978        C979   1.390       .  A
C978        H987   1.083       .  S
C979        C980   1.396   1_655  A
C979        H988   1.084   1_655  S
C980        C986   1.398       .  A
C980        C981   1.416       .  A
C981        C983   1.399       .  A
C981        C982   1.403   1_455  A
C982        H989   1.084       .  S
C983        C984   1.395       .  A
C983        H990   1.083       .  S
C984        C985   1.407       .  A
C984        H991   1.083       .  S
C985        C986   1.400       .  A
C986        H992   1.084       .  S
C993        C994   1.404       .  A
C993        C998   1.406       .  A
C994        C995   1.396       .  A
C994       H1003   1.083       .  S
C995        C996   1.402       .  A
C995       H1004   1.084       .  S
C996       C1002   1.404       .  A
C996        C997   1.414       .  A
C997        C999   1.403       .  A
C997        C998   1.406       .  A
C998       H1005   1.084       .  S
C999       C1000   1.399       .  A
C999       H1006   1.084       .  S
C1000      C1001   1.406       .  A
C1000      H1007   1.083       .  S
C1001      C1002   1.406       .  A
C1002      H1008   1.084       .  S
C1009      C1010   1.405       .  A
C1009      C1014   1.408       .  A
C1010      C1011   1.399       .  A
C1010      H1019   1.083       .  S
C1011      C1012   1.403       .  A
C1011      H1020   1.083       .  S
C1012      C1018   1.406       .  A
C1012      C1013   1.413       .  A
C1013      C1015   1.402       .  A
C1013      C1014   1.404       .  A
C1014      H1021   1.084       .  S
C1015      C1016   1.398       .  A
C1015      H1022   1.083       .  S
C1016      C1017   1.406       .  A
C1016      H1023   1.083       .  S
C1017      C1018   1.409       .  A
C1018      H1024   1.084       .  S
C1025      C1026   1.407       .  A
C1025      C1030   1.408       .  A
C1026      C1027   1.398       .  A
C1026      H1035   1.083       .  S
C1027      C1028   1.402       .  A
C1027      H1036   1.084       .  S
C1028      C1034   1.406       .  A
C1028      C1029   1.414       .  A
C1029      C1031   1.402       .  A
C1029      C1030   1.407       .  A
C1030      H1037   1.084       .  S
C1031      C1032   1.398       .  A
C1031      H1038   1.084       .  S
C1032      C1033   1.407       .  A
C1032      H1039   1.083       .  S
C1033      C1034   1.406       .  A
C1034      H1040   1.084       .  S
C1041      C1042   1.405       .  A
C1041      C1046   1.402       .  A
C1042      C1043   1.398       .  A
C1042      H1051   1.083       .  S
C1043      C1044   1.402       .  A
C1043      H1052   1.083       .  S
C1044      C1050   1.405       .  A
C1044      C1045   1.415       .  A
C1045      C1047   1.399       .  A
C1045      C1046   1.400       .  A
C1046      H1053   1.085       .  S
C1047      C1048   1.393       .  A
C1047      H1054   1.084       .  S
C1048      C1049   1.407       .  A
C1048      H1055   1.083       .  S
C1049      C1050   1.405       .  A
C1050      H1056   1.084       .  S
C1057      C1058   1.406       .  A
C1057      C1062   1.407       .  A
C1058      C1059   1.395       .  A
C1058      H1067   1.083       .  S
C1059      C1060   1.400       .  A
C1059      H1068   1.084       .  S
C1060      C1066   1.402       .  A
C1060      C1061   1.414       .  A
C1061      C1063   1.402       .  A
C1061      C1062   1.405       .  A
C1062      H1069   1.084       .  S
C1063      C1064   1.398       .  A
C1063      H1070   1.084       .  S
C1064      C1065   1.407       .  A
C1064      H1071   1.083       .  S
C1065      C1066   1.405       .  A
C1066      H1072   1.084       .  S
C1073      C1074   1.408       .  A
C1073      C1078   1.406       .  A
C1074      C1075   1.398       .  A
C1074      H1083   1.083       .  S
C1075      C1076   1.401       .  A
C1075      H1084   1.084       .  S
C1076      C1082   1.407       .  A
C1076      C1077   1.415       .  A
C1077      C1079   1.400       .  A
C1077      C1078   1.406       .  A
C1078      H1085   1.084       .  S
C1079      C1080   1.396       .  A
C1079      H1086   1.084       .  S
C1080      C1081   1.408       .  A
C1080      H1087   1.083       .  S
C1081      C1082   1.407       .  A
C1082      H1088   1.084       .  S
C1089      C1090   1.407       .  A
C1089      C1094   1.401       .  A
C1090      C1091   1.399       .  A
C1090      H1099   1.083       .  S
C1091      C1092   1.402       .  A
C1091      H1100   1.084       .  S
C1092      C1098   1.406       .  A
C1092      C1093   1.415       .  A
C1093      C1095   1.397       .  A
C1093      C1094   1.399       .  A
C1094      H1101   1.085       .  S
C1095      C1096   1.390       .  A
C1095      H1102   1.084       .  S
C1096      C1097   1.408       .  A
C1096      H1103   1.083       .  S
C1097      C1098   1.405       .  A
C1098      H1104   1.084       .  S
C1105      C1106   1.407       .  A
C1105      C1110   1.404       .  A
C1106      C1107   1.400       .  A
C1106      H1115   1.083       .  S
C1107      C1108   1.403       .  A
C1107      H1116   1.083       .  S
C1108      C1114   1.407       .  A
C1108      C1109   1.414       .  A
C1109      C1111   1.397       .  A
C1109      C1110   1.398       .  A
C1110      H1117   1.084       .  S
C1111      C1112   1.391       .  A
C1111      H1118   1.084       .  S
C1112      C1113   1.409       .  A
C1112      H1119   1.083       .  S
C1113      C1114   1.407       .  A
C1114      H1120   1.084       .  S
C1121      C1122   1.410       .  A
C1121      C1126   1.407       .  A
C1122      C1123   1.394       .  A
C1122      H1131   1.083       .  S
C1123      C1124   1.397       .  A
C1123      H1132   1.084       .  S
C1124      C1130   1.404       .  A
C1124      C1125   1.415       .  A
C1125      C1127   1.401       .  A
C1125      C1126   1.409       .  A
C1126      H1133   1.084       .  S
C1127      C1128   1.399       .  A
C1127      H1134   1.084       .  S
C1128      C1129   1.409       .  A
C1128      H1135   1.083       .  S
C1129      C1130   1.403       .  A
C1130      H1136   1.084       .  S
C1137      C1138   1.407       .  A
C1137      C1142   1.404       .  A
C1138      C1139   1.399       .  A
C1138      H1147   1.083       .  S
C1139      C1140   1.403       .  A
C1139      H1148   1.084       .  S
C1140      C1146   1.407       .  A
C1140      C1141   1.414       .  A
C1141      C1143   1.399       .  A
C1141      C1142   1.401       .  A
C1142      H1149   1.084       .  S
C1143      C1144   1.394       .  A
C1143      H1150   1.084       .  S
C1144      C1145   1.407       .  A
C1144      H1151   1.083       .  S
C1145      C1146   1.408       .  A
C1146      H1152   1.084       .  S
C1153      C1154   1.405       .  A
C1153      C1158   1.405       .  A
C1154      C1155   1.396       .  A
C1154      H1163   1.083       .  S
C1155      C1156   1.401       .  A
C1155      H1164   1.084       .  S
C1156      C1162   1.404       .  A
C1156      C1157   1.415       .  A
C1157      C1159   1.401       .  A
C1157      C1158   1.405       .  A
C1158      H1165   1.084       .  S
C1159      C1160   1.397       .  A
C1159      H1166   1.084       .  S
C1160      C1161   1.407       .  A
C1160      H1167   1.083       .  S
C1161      C1162   1.405       .  A
C1162      H1168   1.084       .  S
C1169      C1170   1.406       .  A
C1169      C1174   1.406       .  A
C1170      C1171   1.392       .  A
C1170      H1179   1.083       .  S
C1171      C1172   1.398   1_565  A
C1171      H1180   1.084   1_565  S
C1172      C1178   1.401       .  A
C1172      C1173   1.415   1_545  A
C1173      C1175   1.402   1_565  A
C1173      C1174   1.407       .  A
C1174      H1181   1.084       .  S
C1175      C1176   1.399       .  A
C1175      H1182   1.084       .  S
C1176      C1177   1.407       .  A
C1176      H1183   1.083       .  S
C1177      C1178   1.404       .  A
C1178      H1184   1.085       .  S
C1185      C1186   1.408       .  A
C1185      C1190   1.405       .  A
C1186      C1187   1.393       .  A
C1186      H1195   1.083       .  S
C1187      C1188   1.398       .  A
C1187      H1196   1.084       .  S
C1188      C1194   1.403       .  A
C1188      C1189   1.416       .  A
C1189      C1191   1.401       .  A
C1189      C1190   1.407       .  A
C1190      H1197   1.084       .  S
C1191      C1192   1.397       .  A
C1191      H1198   1.084       .  S
C1192      C1193   1.408       .  A
C1192      H1199   1.083       .  S
C1193      C1194   1.402       .  A
C1194      H1200   1.084       .  S
C1201      C1202   1.404       .  A
C1201      C1206   1.407       .  A
C1202      C1203   1.397       .  A
C1202      H1211   1.083       .  S
C1203      C1204   1.403       .  A
C1203      H1212   1.084       .  S
C1204      C1210   1.402       .  A
C1204      C1205   1.413       .  A
C1205      C1207   1.404       .  A
C1205      C1206   1.404       .  A
C1206      H1213   1.084       .  S
C1207      C1208   1.399       .  A
C1207      H1214   1.084       .  S
C1208      C1209   1.404       .  A
C1208      H1215   1.083       .  S
C1209      C1210   1.408       .  A
C1210      H1216   1.084       .  S
C1217      C1218   1.407       .  A
C1217      C1222   1.406       .  A
C1218      C1219   1.398   1_655  A
C1218      H1227   1.083       .  S
C1219      C1220   1.401       .  A
C1219      H1228   1.084       .  S
C1220      C1226   1.407       .  A
C1220      C1221   1.415       .  A
C1221      C1223   1.401       .  A
C1221      C1222   1.408   1_455  A
C1222      H1229   1.084       .  S
C1223      C1224   1.398       .  A
C1223      H1230   1.084       .  S
C1224      C1225   1.408       .  A
C1224      H1231   1.083       .  S
C1225      C1226   1.407       .  A
C1226      H1232   1.084       .  S
C1233      C1234   1.408       .  A
C1233      C1238   1.403       .  A
C1234      C1235   1.403       .  A
C1234      H1243   1.083       .  S
C1235      C1236   1.404       .  A
C1235      H1244   1.083       .  S
C1236      C1242   1.412       .  A
C1236      C1237   1.415       .  A
C1237      C1239   1.397       .  A
C1237      C1238   1.401       .  A
C1238      H1245   1.084       .  S
C1239      C1240   1.391       .  A
C1239      H1246   1.084       .  S
C1240      C1241   1.408       .  A
C1240      H1247   1.083       .  S
C1241      C1242   1.408       .  A
C1242      H1248   1.084       .  S
C1249      C1250   1.406       .  A
C1249      C1254   1.406       .  A
C1250      C1251   1.395       .  A
C1250      H1259   1.083       .  S
C1251      C1252   1.401       .  A
C1251      H1260   1.084       .  S
C1252      C1258   1.404       .  A
C1252      C1253   1.414       .  A
C1253      C1255   1.402       .  A
C1253      C1254   1.407       .  A
C1254      H1261   1.084       .  S
C1255      C1256   1.399       .  A
C1255      H1262   1.083       .  S
C1256      C1257   1.407       .  A
C1256      H1263   1.083       .  S
C1257      C1258   1.407       .  A
C1258      H1264   1.084       .  S
C1265      C1266   1.406       .  A
C1265      C1270   1.408       .  A
C1266      C1267   1.397       .  A
C1266      H1275   1.083       .  S
C1267      C1268   1.402       .  A
C1267      H1276   1.083       .  S
C1268      C1274   1.405   1_455  A
C1268      C1269   1.413       .  A
C1269      C1271   1.402   1_455  A
C1269      C1270   1.405       .  A
C1270      H1277   1.084       .  S
C1271      C1272   1.398       .  A
C1271      H1278   1.083   1_655  S
C1272      C1273   1.407       .  A
C1272      H1279   1.083       .  S
C1273      C1274   1.407       .  A
C1274      H1280   1.084       .  S
C1281      C1282   1.408       .  A
C1281      C1286   1.403       .  A
C1282      C1283   1.398       .  A
C1282      H1291   1.083       .  S
C1283      C1284   1.401   1_565  A
C1283      H1292   1.084   1_565  S
C1284      C1290   1.408       .  A
C1284      C1285   1.415       .  A
C1285      C1287   1.398       .  A
C1285      C1286   1.404   1_545  A
C1286      H1293   1.084       .  S
C1287      C1288   1.394       .  A
C1287      H1294   1.084       .  S
C1288      C1289   1.409       .  A
C1288      H1295   1.083       .  S
C1289      C1290   1.406       .  A
C1290      H1296   1.084       .  S
C1297      C1298   1.408       .  A
C1297      C1302   1.407       .  A
C1298      C1299   1.395       .  A
C1298      H1307   1.083       .  S
C1299      C1300   1.400       .  A
C1299      H1308   1.084       .  S
C1300      C1306   1.403       .  A
C1300      C1301   1.414       .  A
C1301      C1303   1.402       .  A
C1301      C1302   1.407       .  A
C1302      H1309   1.084       .  S
C1303      C1304   1.399       .  A
C1303      H1310   1.084       .  S
C1304      C1305   1.407       .  A
C1304      H1311   1.083       .  S
C1305      C1306   1.406       .  A
C1306      H1312   1.084       .  S
C1313      C1314   1.408       .  A
C1313      C1318   1.405       .  A
C1314      C1315   1.395       .  A
C1314      H1323   1.083       .  S
C1315      C1316   1.399       .  A
C1315      H1324   1.084       .  S
C1316      C1322   1.404       .  A
C1316      C1317   1.416       .  A
C1317      C1319   1.400       .  A
C1317      C1318   1.406       .  A
C1318      H1325   1.084       .  S
C1319      C1320   1.397       .  A
C1319      H1326   1.084       .  S
C1320      C1321   1.408       .  A
C1320      H1327   1.083       .  S
C1321      C1322   1.404       .  A
C1322      H1328   1.084       .  S
C1329      C1330   1.409       .  A
C1329      C1334   1.401       .  A
C1330      C1331   1.398       .  A
C1330      H1339   1.083       .  S
C1331      C1332   1.401       .  A
C1331      H1340   1.084       .  S
C1332      C1338   1.407       .  A
C1332      C1333   1.416       .  A
C1333      C1335   1.397       .  A
C1333      C1334   1.401       .  A
C1334      H1341   1.084       .  S
C1335      C1336   1.391       .  A
C1335      H1342   1.084       .  S
C1336      C1337   1.408       .  A
C1336      H1343   1.083       .  S
C1337      C1338   1.405       .  A
C1338      H1344   1.084       .  S
C1345      C1346   1.406       .  A
C1345      C1350   1.406       .  A
C1346      C1347   1.398   1_554  A
C1346      H1355   1.083       .  S
C1347      C1348   1.401       .  A
C1347      H1356   1.084       .  S
C1348      C1354   1.407       .  A
C1348      C1349   1.414       .  A
C1349      C1351   1.401       .  A
C1349      C1350   1.407   1_556  A
C1350      H1357   1.084       .  S
C1351      C1352   1.398       .  A
C1351      H1358   1.084       .  S
C1352      C1353   1.408       .  A
C1352      H1359   1.083       .  S
C1353      C1354   1.407       .  A
C1354      H1360   1.084       .  S
C1361      C1362   1.406       .  A
C1361      C1366   1.407       .  A
C1362      C1363   1.397       .  A
C1362      H1371   1.083       .  S
C1363      C1364   1.402   1_556  A
C1363      H1372   1.084       .  S
C1364      C1370   1.403       .  A
C1364      C1365   1.413   1_554  A
C1365      C1367   1.402   1_556  A
C1365      C1366   1.404       .  A
C1366      H1373   1.084       .  S
C1367      C1368   1.398       .  A
C1367      H1374   1.084   1_554  S
C1368      C1369   1.406       .  A
C1368      H1375   1.083       .  S
C1369      C1370   1.407       .  A
C1370      H1376   1.084       .  S
C1377      C1378   1.408       .  A
C1377      C1382   1.408       .  A
C1378      C1379   1.401       .  A
C1378      H1387   1.083       .  S
C1379      C1380   1.403       .  A
C1379      H1388   1.083       .  S
C1380      C1386   1.414       .  A
C1380      C1381   1.415       .  A
C1381      C1383   1.401       .  A
C1381      C1382   1.411       .  A
C1382      H1389   1.084       .  S
C1383      C1384   1.399       .  A
C1383      H1390   1.084       .  S
C1384      C1385   1.409       .  A
C1384      H1391   1.083       .  S
C1385      C1386   1.409       .  A
C1386      H1392   1.084       .  S
C1393      C1394   1.406       .  A
C1393      C1398   1.405       .  A
C1394      C1395   1.398       .  A
C1394      H1403   1.083       .  S
C1395      C1396   1.402       .  A
C1395      H1404   1.084       .  S
C1396      C1402   1.402       .  A
C1396      C1397   1.414       .  A
C1397      C1399   1.401       .  A
C1397      C1398   1.399       .  A
C1398      H1405   1.084       .  S
C1399      C1400   1.394       .  A
C1399      H1406   1.084       .  S
C1400      C1401   1.403       .  A
C1400      H1407   1.084       .  S
C1401      C1402   1.404       .  A
C1402      H1408   1.084       .  S
C1409      C1410   1.405       .  A
C1409      C1414   1.406       .  A
C1410      C1411   1.396       .  A
C1410      H1419   1.083       .  S
C1411      C1412   1.402       .  A
C1411      H1420   1.084       .  S
C1412      C1418   1.400       .  A
C1412      C1413   1.413       .  A
C1413      C1415   1.402       .  A
C1413      C1414   1.400       .  A
C1414      H1421   1.084       .  S
C1415      C1416   1.396       .  A
C1415      H1422   1.084       .  S
C1416      C1417   1.404       .  A
C1416      H1423   1.083       .  S
C1417      C1418   1.405       .  A
C1418      H1424   1.085       .  S
C1425      C1426   1.404       .  A
C1425      C1430   1.405       .  A
C1426      C1427   1.393       .  A
C1426      H1435   1.083       .  S
C1427      C1428   1.400       .  A
C1427      H1436   1.084       .  S
C1428      C1434   1.397       .  A
C1428      C1429   1.413       .  A
C1429      C1431   1.403       .  A
C1429      C1430   1.401       .  A
C1430      H1437   1.084       .  S
C1431      C1432   1.398       .  A
C1431      H1438   1.084       .  S
C1432      C1433   1.405       .  A
C1432      H1439   1.083       .  S
C1433      C1434   1.404       .  A
C1434      H1440   1.084       .  S
C1441      C1442   1.409       .  A
C1441      C1446   1.406       .  A
C1442      C1443   1.402       .  A
C1442      H1451   1.083       .  S
C1443      C1444   1.403       .  A
C1443      H1452   1.084       .  S
C1444      C1450   1.413       .  A
C1444      C1445   1.415       .  A
C1445      C1447   1.400       .  A
C1445      C1446   1.408       .  A
C1446      H1453   1.084       .  S
C1447      C1448   1.397       .  A
C1447      H1454   1.084       .  S
C1448      C1449   1.408       .  A
C1448      H1455   1.083       .  S
C1449      C1450   1.411       .  A
C1450      H1456   1.084       .  S
C1457      C1458   1.407       .  A
C1457      C1462   1.404       .  A
C1458      C1459   1.395       .  A
C1458      H1467   1.083       .  S
C1459      C1460   1.400       .  A
C1459      H1468   1.084       .  S
C1460      C1466   1.404       .  A
C1460      C1461   1.415       .  A
C1461      C1463   1.400       .  A
C1461      C1462   1.405       .  A
C1462      H1469   1.084       .  S
C1463      C1464   1.396       .  A
C1463      H1470   1.084       .  S
C1464      C1465   1.407       .  A
C1464      H1471   1.083       .  S
C1465      C1466   1.403       .  A
C1466      H1472   1.084       .  S
C1473      C1474   1.406       .  A
C1473      C1478   1.407       .  A
C1474      C1475   1.397       .  A
C1474      H1483   1.083       .  S
C1475      C1476   1.402       .  A
C1475      H1484   1.084       .  S
C1476      C1482   1.403       .  A
C1476      C1477   1.414       .  A
C1477      C1479   1.402       .  A
C1477      C1478   1.403       .  A
C1478      H1485   1.084       .  S
C1479      C1480   1.397       .  A
C1479      H1486   1.084       .  S
C1480      C1481   1.405       .  A
C1480      H1487   1.083       .  S
C1481      C1482   1.406       .  A
C1482      H1488   1.084       .  S
C1489      C1490   1.408       .  A
C1489      C1494   1.405       .  A
C1490      C1491   1.398       .  A
C1490      H1499   1.083       .  S
C1491      C1492   1.400       .  A
C1491      H1500   1.084       .  S
C1492      C1498   1.410       .  A
C1492      C1493   1.416       .  A
C1493      C1495   1.400       .  A
C1493      C1494   1.408       .  A
C1494      H1501   1.084       .  S
C1495      C1496   1.396       .  A
C1495      H1502   1.084       .  S
C1496      C1497   1.408       .  A
C1496      H1503   1.083       .  S
C1497      C1498   1.405       .  A
C1498      H1504   1.084       .  S
C1505      C1506   1.407       .  A
C1505      C1510   1.404       .  A
C1506      C1507   1.395       .  A
C1506      H1515   1.083       .  S
C1507      C1508   1.400       .  A
C1507      H1516   1.084       .  S
C1508      C1514   1.401       .  A
C1508      C1509   1.414       .  A
C1509      C1511   1.400       .  A
C1509      C1510   1.401       .  A
C1510      H1517   1.084       .  S
C1511      C1512   1.394       .  A
C1511      H1518   1.084       .  S
C1512      C1513   1.406       .  A
C1512      H1519   1.083       .  S
C1513      C1514   1.405       .  A
C1514      H1520   1.084       .  S
C1521      C1522   1.408       .  A
C1521      C1526   1.408       .  A
C1522      C1523   1.400       .  A
C1522      H1531   1.083       .  S
C1523      C1524   1.403       .  A
C1523      H1532   1.084       .  S
C1524      C1530   1.409       .  A
C1524      C1525   1.414       .  A
C1525      C1527   1.401       .  A
C1525      C1526   1.406       .  A
C1526      H1533   1.084       .  S
C1527      C1528   1.396       .  A
C1527      H1534   1.084       .  S
C1528      C1529   1.408       .  A
C1528      H1535   1.083       .  S
C1529      C1530   1.408       .  A
C1530      H1536   1.084       .  S
C1537      C1538   1.407       .  A
C1537      C1542   1.405       .  A
C1538      C1539   1.395       .  A
C1538      H1547   1.083       .  S
C1539      C1540   1.399       .  A
C1539      H1548   1.084       .  S
C1540      C1546   1.403       .  A
C1540      C1541   1.415       .  A
C1541      C1543   1.401       .  A
C1541      C1542   1.406       .  A
C1542      H1549   1.084       .  S
C1543      C1544   1.397       .  A
C1543      H1550   1.084       .  S
C1544      C1545   1.408       .  A
C1544      H1551   1.083       .  S
C1545      C1546   1.404       .  A
C1546      H1552   1.084       .  S
C1553      C1554   1.407       .  A
C1553      C1558   1.403       .  A
C1554      C1555   1.395       .  A
C1554      H1563   1.083       .  S
C1555      C1556   1.400       .  A
C1555      H1564   1.084       .  S
C1556      C1562   1.402   1_556  A
C1556      C1557   1.415       .  A
C1557      C1559   1.400   1_556  A
C1557      C1558   1.401       .  A
C1558      H1565   1.084       .  S
C1559      C1560   1.395       .  A
C1559      H1566   1.084   1_554  S
C1560      C1561   1.405       .  A
C1560      H1567   1.083       .  S
C1561      C1562   1.404       .  A
C1562      H1568   1.084       .  S
C1569      C1570   1.407       .  A
C1569      C1574   1.404       .  A
C1570      C1571   1.393       .  A
C1570      H1579   1.084       .  S
C1571      C1572   1.398       .  A
C1571      H1580   1.084       .  S
C1572      C1578   1.401       .  A
C1572      C1573   1.416       .  A
C1573      C1575   1.401       .  A
C1573      C1574   1.406       .  A
C1574      H1581   1.084       .  S
C1575      C1576   1.397       .  A
C1575      H1582   1.084       .  S
C1576      C1577   1.408       .  A
C1576      H1583   1.083       .  S
C1577      C1578   1.402       .  A
C1578      H1584   1.084       .  S
C1585      C1586   1.408       .  A
C1585      C1590   1.404       .  A
C1586      C1587   1.394       .  A
C1586      H1595   1.083       .  S
C1587      C1588   1.399   1_565  A
C1587      H1596   1.084       .  S
C1588      C1594   1.404       .  A
C1588      C1589   1.416   1_545  A
C1589      C1591   1.401   1_565  A
C1589      C1590   1.407       .  A
C1590      H1597   1.084       .  S
C1591      C1592   1.397       .  A
C1591      H1598   1.084       .  S
C1592      C1593   1.407       .  A
C1592      H1599   1.083       .  S
C1593      C1594   1.404       .  A
C1594      H1600   1.084       .  S
C1601      C1602   1.407       .  A
C1601      C1606   1.407       .  A
C1602      C1603   1.399       .  A
C1602      H1611   1.083       .  S
C1603      C1604   1.402       .  A
C1603      H1612   1.084       .  S
C1604      C1610   1.409   1_556  A
C1604      C1605   1.414       .  A
C1605      C1607   1.400   1_556  A
C1605      C1606   1.407       .  A
C1606      H1613   1.084       .  S
C1607      C1608   1.397       .  A
C1607      H1614   1.084   1_554  S
C1608      C1609   1.409       .  A
C1608      H1615   1.083       .  S
C1609      C1610   1.408       .  A
C1610      H1616   1.084       .  S
C1617      C1618   1.408       .  A
C1617      C1622   1.405       .  A
C1618      C1619   1.395       .  A
C1618      H1627   1.083       .  S
C1619      C1620   1.400       .  A
C1619      H1628   1.084       .  S
C1620      C1626   1.404       .  A
C1620      C1621   1.415       .  A
C1621      C1623   1.401       .  A
C1621      C1622   1.406       .  A
C1622      H1629   1.084       .  S
C1623      C1624   1.397       .  A
C1623      H1630   1.084       .  S
C1624      C1625   1.407       .  A
C1624      H1631   1.083       .  S
C1625      C1626   1.405       .  A
C1626      H1632   1.084       .  S
C1633      C1634   1.404       .  A
C1633      C1638   1.406       .  A
C1634      C1635   1.400       .  A
C1634      H1643   1.083       .  S
C1635      C1636   1.404       .  A
C1635      H1644   1.084       .  S
C1636      C1642   1.405       .  A
C1636      C1637   1.413       .  A
C1637      C1639   1.401       .  A
C1637      C1638   1.402       .  A
C1638      H1645   1.085       .  S
C1639      C1640   1.396       .  A
C1639      H1646   1.084       .  S
C1640      C1641   1.406       .  A
C1640      H1647   1.083       .  S
C1641      C1642   1.408       .  A
C1642      H1648   1.084       .  S
C1649      C1650   1.405       .  A
C1649      C1654   1.406       .  A
C1650      C1651   1.395       .  A
C1650      H1659   1.083       .  S
C1651      C1652   1.401       .  A
C1651      H1660   1.084       .  S
C1652      C1658   1.400       .  A
C1652      C1653   1.413       .  A
C1653      C1655   1.401       .  A
C1653      C1654   1.399       .  A
C1654      H1661   1.084       .  S
C1655      C1656   1.395       .  A
C1655      H1662   1.084       .  S
C1656      C1657   1.406       .  A
C1656      H1663   1.083       .  S
C1657      C1658   1.404       .  A
C1658      H1664   1.084       .  S
C1665      C1666   1.406       .  A
C1665      C1670   1.404       .  A
C1666      C1667   1.395       .  A
C1666      H1675   1.083       .  S
C1667      C1668   1.400   1_545  A
C1667      H1676   1.084   1_545  S
C1668      C1674   1.401       .  A
C1668      C1669   1.415   1_565  A
C1669      C1671   1.400   1_545  A
C1669      C1670   1.400       .  A
C1670      H1677   1.084       .  S
C1671      C1672   1.394       .  A
C1671      H1678   1.084       .  S
C1672      C1673   1.405       .  A
C1672      H1679   1.083       .  S
C1673      C1674   1.402       .  A
C1674      H1680   1.084       .  S
C1681      C1682   1.406       .  A
C1681      C1686   1.409       .  A
C1682      C1683   1.399       .  A
C1682      H1691   1.083       .  S
C1683      C1684   1.404       .  A
C1683      H1692   1.084       .  S
C1684      C1690   1.405       .  A
C1684      C1685   1.412       .  A
C1685      C1687   1.403       .  A
C1685      C1686   1.404       .  A
C1686      H1693   1.084       .  S
C1687      C1688   1.399       .  A
C1687      H1694   1.083       .  S
C1688      C1689   1.405       .  A
C1688      H1695   1.083       .  S
C1689      C1690   1.410       .  A
C1690      H1696   1.084       .  S
C1697      C1698   1.407       .  A
C1697      C1702   1.403       .  A
C1698      C1699   1.391       .  A
C1698      H1707   1.083       .  S
C1699      C1700   1.397       .  A
C1699      H1708   1.084       .  S
C1700      C1706   1.398       .  A
C1700      C1701   1.415       .  A
C1701      C1703   1.400       .  A
C1701      C1702   1.400       .  A
C1702      H1709   1.084       .  S
C1703      C1704   1.395       .  A
C1703      H1710   1.084       .  S
C1704      C1705   1.405       .  A
C1704      H1711   1.083       .  S
C1705      C1706   1.400       .  A
C1706      H1712   1.085       .  S
C1713      C1714   1.406       .  A
C1713      C1718   1.407       .  A
C1714      C1715   1.393       .  A
C1714      H1723   1.083       .  S
C1715      C1716   1.399       .  A
C1715      H1724   1.084       .  S
C1716      C1722   1.400       .  A
C1716      C1717   1.414       .  A
C1717      C1719   1.403       .  A
C1717      C1718   1.405       .  A
C1718      H1725   1.084       .  S
C1719      C1720   1.399       .  A
C1719      H1726   1.084       .  S
C1720      C1721   1.405       .  A
C1720      H1727   1.083       .  S
C1721      C1722   1.404       .  A
C1722      H1728   1.085       .  S
C1729      C1730   1.408       .  A
C1729      C1734   1.406       .  A
C1730      C1731   1.396       .  A
C1730      H1739   1.083       .  S
C1731      C1732   1.400       .  A
C1731      H1740   1.084       .  S
C1732      C1738   1.408       .  A
C1732      C1733   1.416       .  A
C1733      C1735   1.400       .  A
C1733      C1734   1.408       .  A
C1734      H1741   1.084       .  S
C1735      C1736   1.397       .  A
C1735      H1742   1.084       .  S
C1736      C1737   1.409       .  A
C1736      H1743   1.083       .  S
C1737      C1738   1.404       .  A
C1738      H1744   1.084       .  S
C1745      C1746   1.410       .  A
C1745      C1750   1.406       .  A
C1746      C1747   1.397       .  A
C1746      H1755   1.083       .  S
C1747      C1748   1.399       .  A
C1747      H1756   1.084       .  S
C1748      C1754   1.408       .  A
C1748      C1749   1.416       .  A
C1749      C1751   1.400       .  A
C1749      C1750   1.409       .  A
C1750      H1757   1.084       .  S
C1751      C1752   1.397       .  A
C1751      H1758   1.084       .  S
C1752      C1753   1.408       .  A
C1752      H1759   1.083       .  S
C1753      C1754   1.405       .  A
C1754      H1760   1.084       .  S
C1761      C1762   1.411       .  A
C1761      C1766   1.409       .  A
C1762      C1763   1.395       .  A
C1762      H1771   1.083       .  S
C1763      C1764   1.397       .  A
C1763      H1772   1.084       .  S
C1764      C1770   1.409       .  A
C1764      C1765   1.416       .  A
C1765      C1767   1.402       .  A
C1765      C1766   1.416       .  A
C1766      H1773   1.084       .  S
C1767      C1768   1.402       .  A
C1767      H1774   1.084       .  S
C1768      C1769   1.411       .  A
C1768      H1775   1.083       .  S
C1769      C1770   1.405       .  A
C1770      H1776   1.084       .  S
C1777      C1778   1.406       .  A
C1777      C1782   1.406       .  A
C1778      C1779   1.397       .  A
C1778      H1787   1.083       .  S
C1779      C1780   1.402   1_556  A
C1779      H1788   1.084   1_556  S
C1780      C1786   1.403       .  A
C1780      C1781   1.413   1_554  A
C1781      C1783   1.400   1_556  A
C1781      C1782   1.401       .  A
C1782      H1789   1.084       .  S
C1783      C1784   1.395       .  A
C1783      H1790   1.084       .  S
C1784      C1785   1.406       .  A
C1784      H1791   1.083       .  S
C1785      C1786   1.406       .  A
C1786      H1792   1.084       .  S
C1793      C1794   1.408       .  A
C1793      C1798   1.404       .  A
C1794      C1795   1.398       .  A
C1794      H1803   1.083       .  S
C1795      C1796   1.401       .  A
C1795      H1804   1.084       .  S
C1796      C1802   1.408       .  A
C1796      C1797   1.416       .  A
C1797      C1799   1.400       .  A
C1797      C1798   1.408       .  A
C1798      H1805   1.084       .  S
C1799      C1800   1.397       .  A
C1799      H1806   1.084       .  S
C1800      C1801   1.409       .  A
C1800      H1807   1.083       .  S
C1801      C1802   1.406       .  A
C1802      H1808   1.084       .  S
C1809      C1810   1.409       .  A
C1809      C1814   1.406       .  A
C1810      C1811   1.403       .  A
C1810      H1819   1.083       .  S
C1811      C1812   1.404   1_655  A
C1811      H1820   1.083   1_655  S
C1812      C1818   1.415       .  A
C1812      C1813   1.415   1_455  A
C1813      C1815   1.397   1_655  A
C1813      C1814   1.406       .  A
C1814      H1821   1.084       .  S
C1815      C1816   1.393       .  A
C1815      H1822   1.084       .  S
C1816      C1817   1.410       .  A
C1816      H1823   1.083       .  S
C1817      C1818   1.410       .  A
C1818      H1824   1.084       .  S
C1825      C1826   1.410       .  A
C1825      C1830   1.408       .  A
C1826      C1827   1.402       .  A
C1826      H1835   1.083       .  S
C1827      C1828   1.403   1_556  A
C1827      H1836   1.084       .  S
C1828      C1834   1.414       .  A
C1828      C1829   1.415   1_554  A
C1829      C1831   1.401   1_556  A
C1829      C1830   1.412       .  A
C1830      H1837   1.084       .  S
C1831      C1832   1.399       .  A
C1831      H1838   1.084   1_554  S
C1832      C1833   1.409       .  A
C1832      H1839   1.083       .  S
C1833      C1834   1.411       .  A
C1834      H1840   1.084       .  S
C1841      C1842   1.408       .  A
C1841      C1846   1.405       .  A
C1842      C1843   1.405       .  A
C1842      H1851   1.083       .  S
C1843      C1844   1.406       .  A
C1843      H1852   1.083       .  S
C1844      C1850   1.415       .  A
C1844      C1845   1.414       .  A
C1845      C1847   1.398       .  A
C1845      C1846   1.404       .  A
C1846      H1853   1.084       .  S
C1847      C1848   1.393       .  A
C1847      H1854   1.084       .  S
C1848      C1849   1.408       .  A
C1848      H1855   1.083       .  S
C1849      C1850   1.412       .  A
C1850      H1856   1.084       .  S
C1857      C1858   1.406       .  A
C1857      C1862   1.405       .  A
C1858      C1859   1.393       .  A
C1858      H1867   1.083       .  S
C1859      C1860   1.399       .  A
C1859      H1868   1.084       .  S
C1860      C1866   1.398       .  A
C1860      C1861   1.414       .  A
C1861      C1863   1.401       .  A
C1861      C1862   1.401       .  A
C1862      H1869   1.084       .  S
C1863      C1864   1.396       .  A
C1863      H1870   1.084       .  S
C1864      C1865   1.406       .  A
C1864      H1871   1.083       .  S
C1865      C1866   1.404       .  A
C1866      H1872   1.084       .  S
C1873      C1874   1.409       .  A
C1873      C1878   1.407       .  A
C1874      C1875   1.396       .  A
C1874      H1883   1.083       .  S
C1875      C1876   1.399       .  A
C1875      H1884   1.084       .  S
C1876      C1882   1.408       .  A
C1876      C1877   1.416       .  A
C1877      C1879   1.401       .  A
C1877      C1878   1.411       .  A
C1878      H1885   1.084       .  S
C1879      C1880   1.399       .  A
C1879      H1886   1.084       .  S
C1880      C1881   1.409       .  A
C1880      H1887   1.083       .  S
C1881      C1882   1.407       .  A
C1882      H1888   1.084       .  S
C1889      C1890   1.410       .  A
C1889      C1894   1.406       .  A
C1890      C1891   1.396       .  A
C1890      H1899   1.083       .  S
C1891      C1892   1.399   1_655  A
C1891      H1900   1.084       .  S
C1892      C1898   1.410       .  A
C1892      C1893   1.417   1_455  A
C1893      C1895   1.400   1_655  A
C1893      C1894   1.410       .  A
C1894      H1901   1.084       .  S
C1895      C1896   1.397       .  A
C1895      H1902   1.084       .  S
C1896      C1897   1.410       .  A
C1896      H1903   1.083       .  S
C1897      C1898   1.404       .  A
C1898      H1904   1.084       .  S
C1905      C1906   1.405       .  A
C1905      C1910   1.403       .  A
C1906      C1907   1.393       .  A
C1906      H1915   1.083       .  S
C1907      C1908   1.400       .  A
C1907      H1916   1.084       .  S
C1908      C1914   1.397       .  A
C1908      C1909   1.414       .  A
C1909      C1911   1.401       .  A
C1909      C1910   1.398       .  A
C1910      H1917   1.084       .  S
C1911      C1912   1.395       .  A
C1911      H1918   1.084       .  S
C1912      C1913   1.405       .  A
C1912      H1919   1.083       .  S
C1913      C1914   1.402       .  A
C1914      H1920   1.085       .  S
C1921      C1922   1.408       .  A
C1921      C1926   1.407       .  A
C1922      C1923   1.399       .  A
C1922      H1931   1.083       .  S
C1923      C1924   1.401       .  A
C1923      H1932   1.084       .  S
C1924      C1930   1.413       .  A
C1924      C1925   1.416       .  A
C1925      C1927   1.401       .  A
C1925      C1926   1.414       .  A
C1926      H1933   1.084       .  S
C1927      C1928   1.400       .  A
C1927      H1934   1.084       .  S
C1928      C1929   1.411       .  A
C1928      H1935   1.083       .  S
C1929      C1930   1.408       .  A
C1930      H1936   1.084       .  S
C1937      C1938   1.409       .  A
C1937      C1942   1.408       .  A
C1938      C1939   1.400       .  A
C1938      H1947   1.083       .  S
C1939      C1940   1.402       .  A
C1939      H1948   1.084       .  S
C1940      C1946   1.411       .  A
C1940      C1941   1.415       .  A
C1941      C1943   1.401       .  A
C1941      C1942   1.410       .  A
C1942      H1949   1.084       .  S
C1943      C1944   1.398       .  A
C1943      H1950   1.084       .  S
C1944      C1945   1.409       .  A
C1944      H1951   1.083       .  S
C1945      C1946   1.408       .  A
C1946      H1952   1.084       .  S
C1953      C1954   1.409       .  A
C1953      C1958   1.403       .  A
C1954      C1955   1.397       .  A
C1954      H1963   1.083       .  S
C1955      C1956   1.400       .  A
C1955      H1964   1.084       .  S
C1956      C1962   1.407       .  A
C1956      C1957   1.415       .  A
C1957      C1959   1.397       .  A
C1957      C1958   1.403       .  A
C1958      H1965   1.084       .  S
C1959      C1960   1.393       .  A
C1959      H1966   1.084       .  S
C1960      C1961   1.409       .  A
C1960      H1967   1.083       .  S
C1961      C1962   1.405       .  A
C1962      H1968   1.084       .  S
C1969      C1970   1.410       .  A
C1969      C1974   1.406       .  A
C1970      C1971   1.403       .  A
C1970      H1979   1.083       .  S
C1971      C1972   1.403       .  A
C1971      H1980   1.083       .  S
C1972      C1978   1.416       .  A
C1972      C1973   1.415       .  A
C1973      C1975   1.399       .  A
C1973      C1974   1.411       .  A
C1974      H1981   1.084       .  S
C1975      C1976   1.397       .  A
C1975      H1982   1.083       .  S
C1976      C1977   1.410       .  A
C1976      H1983   1.083       .  S
C1977      C1978   1.411       .  A
C1978      H1984   1.084       .  S
C1985      C1986   1.409       .  A
C1985      C1990   1.400       .  A
C1986      C1987   1.395       .  A
C1986      H1995   1.083       .  S
C1987      C1988   1.399       .  A
C1987      H1996   1.084       .  S
C1988      C1994   1.404       .  A
C1988      C1989   1.416       .  A
C1989      C1991   1.396       .  A
C1989      C1990   1.400       .  A
C1990      H1997   1.084       .  S
C1991      C1992   1.391       .  A
C1991      H1998   1.084       .  S
C1992      C1993   1.409       .  A
C1992      H1999   1.083       .  S
C1993      C1994   1.402       .  A
C1994      H2000   1.084       .  S
C2001      C2002   1.408       .  A
C2001      C2006   1.405       .  A
C2002      C2003   1.392       .  A
C2002      H2011   1.083       .  S
C2003      C2004   1.397       .  A
C2003      H2012   1.084       .  S
C2004      C2010   1.401       .  A
C2004      C2005   1.416       .  A
C2005      C2007   1.401       .  A
C2005      C2006   1.406       .  A
C2006      H2013   1.084       .  S
C2007      C2008   1.397       .  A
C2007      H2014   1.084       .  S
C2008      C2009   1.408       .  A
C2008      H2015   1.083       .  S
C2009      C2010   1.401       .  A
C2010      H2016   1.084       .  S
C2017      C2018   1.407       .  A
C2017      C2022   1.405       .  A
C2018      C2019   1.392       .  A
C2018      H2027   1.083       .  S
C2019      C2020   1.397   1_655  A
C2019      H2028   1.084   1_655  S
C2020      C2026   1.399       .  A
C2020      C2021   1.416   1_455  A
C2021      C2023   1.401   1_655  A
C2021      C2022   1.404       .  A
C2022      H2029   1.084       .  S
C2023      C2024   1.397       .  A
C2023      H2030   1.084       .  S
C2024      C2025   1.406       .  A
C2024      H2031   1.083       .  S
C2025      C2026   1.399       .  A
C2026      H2032   1.085       .  S
C2033      C2034   1.405       .  A
C2033      C2038   1.403       .  A
C2034      C2035   1.393       .  A
C2034      H2043   1.083       .  S
C2035      C2036   1.399   1_556  A
C2035      H2044   1.084   1_556  S
C2036      C2042   1.398       .  A
C2036      C2037   1.414   1_554  A
C2037      C2039   1.400   1_556  A
C2037      C2038   1.400       .  A
C2038      H2045   1.085       .  S
C2039      C2040   1.395       .  A
C2039      H2046   1.084       .  S
C2040      C2041   1.406       .  A
C2040      H2047   1.083       .  S
C2041      C2042   1.402       .  A
C2042      H2048   1.085       .  S
C2049      C2050   1.409       .  A
C2049      C2054   1.406       .  A
C2050      C2051   1.394       .  A
C2050      H2059   1.083       .  S
C2051      C2052   1.399       .  A
C2051      H2060   1.084       .  S
C2052      C2058   1.404       .  A
C2052      C2053   1.415       .  A
C2053      C2055   1.401       .  A
C2053      C2054   1.408       .  A
C2054      H2061   1.084       .  S
C2055      C2056   1.398       .  A
C2055      H2062   1.084       .  S
C2056      C2057   1.408       .  A
C2056      H2063   1.083       .  S
C2057      C2058   1.405       .  A
C2058      H2064   1.084       .  S
C2065      C2066   1.407       .  A
C2065      C2070   1.405       .  A
C2066      C2067   1.397       .  A
C2066      H2075   1.083       .  S
C2067      C2068   1.401       .  A
C2067      H2076   1.084       .  S
C2068      C2074   1.403       .  A
C2068      C2069   1.414       .  A
C2069      C2071   1.401       .  A
C2069      C2070   1.402       .  A
C2070      H2077   1.084       .  S
C2071      C2072   1.396       .  A
C2071      H2078   1.084       .  S
C2072      C2073   1.404       .  A
C2072      H2079   1.083       .  S
C2073      C2074   1.404       .  A
C2074      H2080   1.084       .  S
C2081      C2082   1.408       .  A
C2081      C2086   1.406       .  A
C2082      C2083   1.398       .  A
C2082      H2091   1.083       .  S
C2083      C2084   1.401   1_565  A
C2083      H2092   1.084   1_565  S
C2084      C2090   1.410       .  A
C2084      C2085   1.416       .  A
C2085      C2087   1.400       .  A
C2085      C2086   1.410   1_545  A
C2086      H2093   1.084       .  S
C2087      C2088   1.398       .  A
C2087      H2094   1.084       .  S
C2088      C2089   1.410       .  A
C2088      H2095   1.083       .  S
C2089      C2090   1.407       .  A
C2090      H2096   1.084       .  S
C2097      C2098   1.407       .  A
C2097      C2102   1.409       .  A
C2098      C2099   1.390       .  A
C2098      H2107   1.083       .  S
C2099      C2100   1.397   1_554  A
C2099      H2108   1.084       .  S
C2100      C2106   1.398       .  A
C2100      C2101   1.414   1_556  A
C2101      C2103   1.405   1_554  A
C2101      C2102   1.410       .  A
C2102      H2109   1.084       .  S
C2103      C2104   1.403       .  A
C2103      H2110   1.083   1_556  S
C2104      C2105   1.407       .  A
C2104      H2111   1.083       .  S
C2105      C2106   1.404       .  A
C2106      H2112   1.084       .  S
C2113      C2114   1.405       .  A
C2113      C2118   1.405       .  A
C2114      C2115   1.393       .  A
C2114      H2123   1.084       .  S
C2115      C2116   1.399       .  A
C2115      H2124   1.084       .  S
C2116      C2122   1.400       .  A
C2116      C2117   1.415       .  A
C2117      C2119   1.403       .  A
C2117      C2118   1.407       .  A
C2118      H2125   1.084       .  S
C2119      C2120   1.400       .  A
C2119      H2126   1.084       .  S
C2120      C2121   1.407       .  A
C2120      H2127   1.083       .  S
C2121      C2122   1.404       .  A
C2122      H2128   1.084       .  S
C2129      C2130   1.410       .  A
C2129      C2134   1.403       .  A
C2130      C2131   1.396       .  A
C2130      H2139   1.083       .  S
C2131      C2132   1.399       .  A
C2131      H2140   1.084       .  S
C2132      C2138   1.406       .  A
C2132      C2133   1.416       .  A
C2133      C2135   1.399       .  A
C2133      C2134   1.406       .  A
C2134      H2141   1.084       .  S
C2135      C2136   1.395       .  A
C2135      H2142   1.084       .  S
C2136      C2137   1.409       .  A
C2136      H2143   1.083       .  S
C2137      C2138   1.404       .  A
C2138      H2144   1.084       .  S
C2145      C2146   1.406       .  A
C2145      C2150   1.404       .  A
C2146      C2147   1.399       .  A
C2146      H2155   1.083       .  S
C2147      C2148   1.402       .  A
C2147      H2156   1.083       .  S
C2148      C2154   1.407       .  A
C2148      C2149   1.415       .  A
C2149      C2151   1.399       .  A
C2149      C2150   1.402       .  A
C2150      H2157   1.085       .  S
C2151      C2152   1.394       .  A
C2151      H2158   1.084       .  S
C2152      C2153   1.408       .  A
C2152      H2159   1.083       .  S
C2153      C2154   1.406       .  A
C2154      H2160   1.084       .  S
C2161      C2162   1.406       .  A
C2161      C2166   1.407       .  A
C2162      C2163   1.398       .  A
C2162      H2171   1.083       .  S
C2163      C2164   1.402   1_655  A
C2163      H2172   1.084   1_655  S
C2164      C2170   1.406       .  A
C2164      C2165   1.414   1_455  A
C2165      C2167   1.402   1_655  A
C2165      C2166   1.406       .  A
C2166      H2173   1.084       .  S
C2167      C2168   1.398       .  A
C2167      H2174   1.084       .  S
C2168      C2169   1.407       .  A
C2168      H2175   1.083       .  S
C2169      C2170   1.407       .  A
C2170      H2176   1.084       .  S
C2177      C2178   1.404       .  A
C2177      C2182   1.405       .  A
C2178      C2179   1.397       .  A
C2178      H2187   1.083       .  S
C2179      C2180   1.402   1_565  A
C2179      H2188   1.084   1_565  S
C2180      C2186   1.403       .  A
C2180      C2181   1.414   1_545  A
C2181      C2183   1.401   1_565  A
C2181      C2182   1.403       .  A
C2182      H2189   1.085       .  S
C2183      C2184   1.396       .  A
C2183      H2190   1.084       .  S
C2184      C2185   1.407       .  A
C2184      H2191   1.083       .  S
C2185      C2186   1.405       .  A
C2186      H2192   1.084       .  S
C2193      C2194   1.407       .  A
C2193      C2198   1.408       .  A
C2194      C2195   1.398       .  A
C2194      H2203   1.083       .  S
C2195      C2196   1.402       .  A
C2195      H2204   1.084       .  S
C2196      C2202   1.406       .  A
C2196      C2197   1.413       .  A
C2197      C2199   1.403       .  A
C2197      C2198   1.408       .  A
C2198      H2205   1.084       .  S
C2199      C2200   1.400       .  A
C2199      H2206   1.084       .  S
C2200      C2201   1.406       .  A
C2200      H2207   1.083       .  S
C2201      C2202   1.410       .  A
C2202      H2208   1.084       .  S
C2209      C2210   1.406       .  A
C2209      C2214   1.403       .  A
C2210      C2211   1.397       .  A
C2210      H2219   1.083       .  S
C2211      C2212   1.402       .  A
C2211      H2220   1.084       .  S
C2212      C2218   1.403       .  A
C2212      C2213   1.414       .  A
C2213      C2215   1.399       .  A
C2213      C2214   1.398       .  A
C2214      H2221   1.084       .  S
C2215      C2216   1.393       .  A
C2215      H2222   1.084       .  S
C2216      C2217   1.405       .  A
C2216      H2223   1.083       .  S
C2217      C2218   1.406       .  A
C2218      H2224   1.084       .  S
C2225      C2226   1.406       .  A
C2225      C2230   1.405       .  A
C2226      C2227   1.401       .  A
C2226      H2235   1.083       .  S
C2227      C2228   1.404       .  A
C2227      H2236   1.084       .  S
C2228      C2234   1.407       .  A
C2228      C2229   1.413       .  A
C2229      C2231   1.400       .  A
C2229      C2230   1.401       .  A
C2230      H2237   1.084       .  S
C2231      C2232   1.394       .  A
C2231      H2238   1.084       .  S
C2232      C2233   1.406       .  A
C2232      H2239   1.083       .  S
C2233      C2234   1.409       .  A
C2234      H2240   1.084       .  S
