geometry optimzed in LAMMPS
_audit_creation_date              2020-11-30 
_audit_creation_method            'lammps2cif' 
_symmetry_space_group_name_H-M    'P1' 
_symmetry_Int_Tables_number       1 
_symmetry_cell_setting            triclinic 
loop_ 
_symmetry_equiv_pos_as_xyz 
  x,y,z 
_cell_length_a                    51.56783198 
_cell_length_b                    51.59832837509585 
_cell_length_c                    51.57947461366304 
_cell_angle_alpha                 90.13866856677201 
_cell_angle_beta                  90.25800028550925 
_cell_angle_gamma                 90.4695313085842 
loop_ 
_atom_site_label 
_atom_site_type_symbol 
_atom_site_fract_x 
_atom_site_fract_y 
_atom_site_fract_z 
_atom_site_charge 
C1          C  0.91232460  0.41007923  0.47099678     0.86400
C2          C  0.90878499  0.43980975  0.47344664    -0.53800
C3          C  0.91840629  0.45021125  0.49602967     0.09300
C4          C  0.93161927  0.43013423  0.51390254     0.20300
C5          C  0.94195449  0.40694931  0.47423389    -0.54500
C6          C  0.95222028  0.41760413  0.49618125     0.09400
C7          C  0.90086016  0.39886076  0.49605475    -0.54100
C8          C  0.91102676  0.40865288  0.51849852     0.10000
H9          H  0.90121906  0.45229061  0.45854831     0.14500
H10         H  0.93989459  0.43851896  0.53202056     0.00300
H11         H  0.95374108  0.39621150  0.46073410     0.14800
H12         H  0.88680320  0.38304717  0.49600295     0.14600
C13         C  0.91326027  0.51827152  0.52705452     0.86400
C14         C  0.90912469  0.48879821  0.52415499    -0.53800
C15         C  0.91839848  0.47864349  0.50147617     0.09300
C16         C  0.93135280  0.49901604  0.48357857     0.20300
C17         C  0.94267976  0.52226453  0.52317223    -0.54500
C18         C  0.95242161  0.51143487  0.50119727     0.09400
C19         C  0.90150104  0.53011123  0.50219674    -0.54100
C20         C  0.91095937  0.52061883  0.47942919     0.10000
H21         H  0.90016702  0.47691400  0.53903290     0.14500
H22         H  0.93919448  0.49081751  0.46531842     0.00300
H23         H  0.95478419  0.53290464  0.53665062     0.14800
H24         H  0.88826081  0.54629442  0.50209846     0.14600
C25         C  0.02073154  0.51801960  0.47150832     0.86400
C26         C  0.02506472  0.48836183  0.47450386    -0.53800
C27         C  0.01494082  0.47802229  0.49691556     0.09300
C28         C  0.00132287  0.49843065  0.51419663     0.20300
C29         C  0.99104893  0.52044091  0.47365232    -0.54500
C30         C  0.98082391  0.51072585  0.49590525     0.09400
C31         C  0.03184769  0.52972906  0.49660235    -0.54100
C32         C  0.02214165  0.51975272  0.51895431     0.10000
H33         H  0.03439460  0.47624332  0.46019822     0.14500
H34         H  0.99293313  0.49026295  0.53224513     0.00300
H35         H  0.97907054  0.52928150  0.45877285     0.14800
H36         H  0.04611911  0.54534406  0.49658196     0.14600
C37         C  0.01949670  0.40948782  0.52834041     0.86400
C38         C  0.02389544  0.43920565  0.52566541    -0.53800
C39         C  0.01503161  0.44945900  0.50271808     0.09300
C40         C  0.00209091  0.42906208  0.48467961     0.20300
C41         C  0.98984358  0.40692292  0.52458715    -0.54500
C42         C  0.98061304  0.41690434  0.50198492     0.09400
C43         C  0.03120879  0.39761666  0.50372197    -0.54100
C44         C  0.02278625  0.40751063  0.48052734     0.10000
H45         H  0.03181313  0.45141233  0.54093918     0.14500
H46         H  0.99445082  0.43806535  0.46682104     0.00300
H47         H  0.97692753  0.39868361  0.53901959     0.14800
H48         H  0.04493991  0.38183694  0.50495825     0.14600
C49         C  0.41634451  0.43985515  0.94330880     0.86400
C50         C  0.44571001  0.44321232  0.93775644    -0.53800
C51         C  0.45627899  0.46576765  0.94748964     0.09300
C52         C  0.43644207  0.48298530  0.96181337     0.20300
C53         C  0.41510074  0.44226534  0.97314768    -0.54500
C54         C  0.42499609  0.46485338  0.98285669     0.09400
C55         C  0.40396774  0.46476437  0.93271763    -0.54100
C56         C  0.41415431  0.48727002  0.94222816     0.10000
H57         H  0.45767537  0.42868193  0.92861346     0.14500
H58         H  0.44485119  0.50124227  0.96977882     0.00300
H59         H  0.40623174  0.42769375  0.98550570     0.14800
H60         H  0.38780790  0.46455201  0.91913023     0.14600
C61         C  0.52547864  0.49557788  0.94779060     0.86400
C62         C  0.49641320  0.49322917  0.94063227    -0.53800
C63         C  0.48486173  0.47060236  0.94867112     0.09300
C64         C  0.50351022  0.45214359  0.96305887     0.20300
C65         C  0.52522185  0.49170223  0.97748155    -0.54500
C66         C  0.51432118  0.46912115  0.98563907     0.09400
C67         C  0.53795695  0.47076574  0.93704995    -0.54100
C68         C  0.52649841  0.44766005  0.94396435     0.10000
H69         H  0.48569244  0.50855205  0.93111358     0.14500
H70         H  0.49320827  0.43461131  0.96980345     0.00300
H71         H  0.53089713  0.50586585  0.99154121     0.14800
H72         H  0.55488532  0.47187751  0.92469148     0.14600
C73         C  0.51892636  0.44132713  0.05531293     0.86400
C74         C  0.48950180  0.44529285  0.05982057    -0.53800
C75         C  0.47979667  0.46728314  0.04869314     0.09300
C76         C  0.50048174  0.48341681  0.03385119     0.20300
C77         C  0.52127925  0.44197544  0.02543293    -0.54500
C78         C  0.51169896  0.46377676  0.01405737     0.09400
C79         C  0.53164806  0.46674157  0.06486018    -0.54100
C80         C  0.52265541  0.48874426  0.05366069     0.10000
H81         H  0.47686640  0.43178413  0.06978663     0.14500
H82         H  0.49274543  0.50122985  0.02468441     0.00300
H83         H  0.53075729  0.42692523  0.01437148     0.14800
H84         H  0.54732030  0.46719859  0.07901698     0.14600
C85         C  0.41277858  0.50047755  0.04757927     0.86400
C86         C  0.44153991  0.49658335  0.05508811    -0.53800
C87         C  0.45138608  0.47298010  0.04794149     0.09300
C88         C  0.43129069  0.45513661  0.03392976     0.20300
C89         C  0.41323883  0.49556297  0.01798780    -0.54500
C90         C  0.42253469  0.47201663  0.01076519     0.09400
C91         C  0.39820577  0.47702227  0.05898639    -0.54100
C92         C  0.40733281  0.45324817  0.05206502     0.10000
H93         H  0.45348343  0.51172287  0.06379680     0.14500
H94         H  0.43914614  0.43606468  0.02795629     0.00300
H95         H  0.40870260  0.50986461  0.00344913     0.14800
H96         H  0.38130017  0.47918226  0.07128143     0.14600
C97         C  0.49870827  0.91531579  0.54843502     0.86400
C98         C  0.49499613  0.90973456  0.51923859    -0.53800
C99         C  0.47149782  0.91722525  0.50942964     0.09300
C100        C  0.45358096  0.92998570  0.52986735     0.20300
C101        C  0.49326259  0.94476435  0.55089472    -0.54500
C102        C  0.47022371  0.95254260  0.54080119     0.09400
C103        C  0.47513852  0.90274164  0.56165395    -0.54100
C104        C  0.45147194  0.91043800  0.55259727     0.10000
H105        H  0.50992736  0.90116578  0.50724940     0.14500
H106        H  0.43459454  0.93636184  0.52200230     0.00300
H107        H  0.50543178  0.95888046  0.56054779     0.14800
H108        H  0.47710521  0.88937980  0.57777702     0.14600
C109        C  0.43668698  0.91136131  0.44330479     0.86400
C110        C  0.44214057  0.90599987  0.47214406    -0.53800
C111        C  0.46507470  0.91609925  0.48114638     0.09300
C112        C  0.48100528  0.93040432  0.46004541     0.20300
C113        C  0.43916636  0.94126305  0.44098750    -0.54500
C114        C  0.46202050  0.95125174  0.44993797     0.09400
C115        C  0.46075813  0.90147530  0.42853944    -0.54100
C116        C  0.48403283  0.91086304  0.43731493     0.10000
H117        H  0.42833073  0.89625076  0.48469745     0.14500
H118        H  0.49969215  0.93855016  0.46727841     0.00300
H119        H  0.42476136  0.95368385  0.43217071     0.14800
H120        H  0.45957470  0.88867184  0.41185477     0.14600
C121        C  0.49593777  0.01751260  0.44109683     0.86400
C122        C  0.49169328  0.02383131  0.47001587    -0.53800
C123        C  0.46826643  0.01550026  0.47962779     0.09300
C124        C  0.45094596  0.00164559  0.45913249     0.20300
C125        C  0.49126408  0.98789073  0.43941458    -0.54500
C126        C  0.46828331  0.97948946  0.44902433     0.09400
C127        C  0.47223236  0.02879519  0.42690465    -0.54100
C128        C  0.44874631  0.02093620  0.43622887     0.10000
H129        H  0.50650218  0.03283023  0.48213978     0.14500
H130        H  0.43199087  0.99475921  0.46674210     0.00300
H131        H  0.50422987  0.97407884  0.43075617     0.14800
H132        H  0.47386420  0.04115880  0.40996758     0.14600
C133        C  0.43798323  0.01956757  0.54847803     0.86400
C134        C  0.44024362  0.02444472  0.51878684    -0.53800
C135        C  0.46262418  0.01512799  0.50806687     0.09300
C136        C  0.48064579  0.00172085  0.52774588     0.20300
C137        C  0.44108647  0.98996042  0.55085879    -0.54500
C138        C  0.46322888  0.98054823  0.54014509     0.09400
C139        C  0.46345488  0.03119545  0.55972188    -0.54100
C140        C  0.48626015  0.02213957  0.54938395     0.10000
H141        H  0.42606908  0.03369791  0.50701109     0.14500
H142        H  0.49772677  0.99367359  0.51795468     0.00300
H143        H  0.42703133  0.97752880  0.56043747     0.14800
H144        H  0.46299927  0.04511152  0.57544846     0.14600
C145        C  0.41047665  0.91333073  0.02288362     0.86400
C146        C  0.43972186  0.90845052  0.01909585    -0.53800
C147        C  0.44988369  0.91875906  0.99695572     0.09300
C148        C  0.42945022  0.93231619  0.97969570     0.20300
C149        C  0.40772884  0.94292885  0.02025851    -0.54500
C150        C  0.41758474  0.95292125  0.99781112     0.09400
C151        C  0.39831481  0.90190539  0.99782189    -0.54100
C152        C  0.40763367  0.91187241  0.97512525     0.10000
H153        H  0.45134879  0.89769310  0.03279108     0.14500
H154        H  0.43767106  0.94065633  0.96165334     0.00300
H155        H  0.39912461  0.95500376  0.03514075     0.14800
H156        H  0.38520012  0.88545744  0.99757782     0.14600
C157        C  0.51698472  0.91093162  0.96476865     0.86400
C158        C  0.48744323  0.90820337  0.96835815    -0.53800
C159        C  0.47819541  0.91812414  0.99099445     0.09300
C160        C  0.49960388  0.93036619  0.00840077     0.20300
C161        C  0.52169357  0.94054506  0.96774607    -0.54500
C162        C  0.51261067  0.95075492  0.99050023     0.09400
C163        C  0.52901287  0.89915408  0.98943443    -0.54100
C164        C  0.52021119  0.90889587  0.01240479     0.10000
H165        H  0.47496685  0.89905941  0.95404693     0.14500
H166        H  0.49204965  0.93870657  0.02672105     0.00300
H167        H  0.53057998  0.95286165  0.95327627     0.14800
H168        H  0.54272152  0.88332546  0.98857059     0.14600
C169        C  0.41256166  0.02129537  0.96779125     0.86400
C170        C  0.44215876  0.02505364  0.97071463    -0.53800
C171        C  0.45261710  0.01435265  0.99255889     0.09300
C172        C  0.43213095  0.00129190  0.01033224     0.20300
C173        C  0.40832135  0.99179742  0.97032573    -0.54500
C174        C  0.41847796  0.98127484  0.99241920     0.09400
C175        C  0.40198777  0.03287592  0.99326938    -0.54100
C176        C  0.41140732  0.02224490  0.01559112     0.10000
H177        H  0.45386912  0.03518567  0.95655481     0.14500
H178        H  0.44053374  0.99257954  0.02812582     0.00300
H179        H  0.39838085  0.98018638  0.95570820     0.14800
H180        H  0.38948796  0.04954049  0.99422509     0.14600
C181        C  0.52206950  0.01864974  0.02158470     0.86400
C182        C  0.49258400  0.02361173  0.01926921    -0.53800
C183        C  0.48125526  0.01363507  0.99731928     0.09300
C184        C  0.50074241  0.00009786  0.97895697     0.20300
C185        C  0.52450810  0.98903794  0.01845032    -0.54500
C186        C  0.51345798  0.97919241  0.99631520     0.09400
C187        C  0.53283035  0.03021372  0.99612555    -0.54100
C188        C  0.52244601  0.02044131  0.97379051     0.10000
H189        H  0.48154277  0.03399185  0.03375508     0.14500
H190        H  0.49161054  0.99209166  0.96107675     0.00300
H191        H  0.53394803  0.97685411  0.03273869     0.14800
H192        H  0.54620119  0.04646419  0.99532306     0.14600
C193        C  0.91313406  0.93368014  0.44511119     0.86400
C194        C  0.94216831  0.93761398  0.43828689    -0.53800
C195        C  0.95264007  0.96084431  0.44670063     0.09300
C196        C  0.93318473  0.97798338  0.46142013     0.20300
C197        C  0.91280582  0.93767706  0.47499932    -0.54500
C198        C  0.92323080  0.96046163  0.48350761     0.09400
C199        C  0.89964409  0.95808128  0.43446439    -0.54100
C200        C  0.91009243  0.98112143  0.44263380     0.10000
H201        H  0.95360950  0.92294893  0.42858410     0.14500
H202        H  0.94159371  0.99663289  0.46841375     0.00300
H203        H  0.90508404  0.92432034  0.48910429     0.14800
H204        H  0.88285680  0.95719090  0.42169140     0.14600
C205        C  0.91646052  0.99079761  0.55204329     0.86400
C206        C  0.94582208  0.98647330  0.55769006    -0.53800
C207        C  0.95563462  0.96382334  0.54775801     0.09300
C208        C  0.93525765  0.94766889  0.53248997     0.20300
C209        C  0.91535643  0.98909842  0.52208381    -0.54500
C210        C  0.92478852  0.96667284  0.51180295     0.09400
C211        C  0.90302328  0.96569381  0.56142740    -0.54100
C212        C  0.91253721  0.94326845  0.55135173     0.10000
H213        H  0.95875550  0.00068849  0.56614829     0.14500
H214        H  0.94305003  0.92947925  0.52412120     0.00300
H215        H  0.90716195  0.00421293  0.51008107     0.14800
H216        H  0.88671826  0.96575230  0.57468536     0.14600
C217        C  0.02039215  0.99429188  0.44387823     0.86400
C218        C  0.99109146  0.99045579  0.43770961    -0.53800
C219        C  0.98099931  0.96713384  0.44606031     0.09300
C220        C  0.00104809  0.94998489  0.45991005     0.20300
C221        C  0.02120989  0.99057110  0.47365051    -0.54500
C222        C  0.01172391  0.96744865  0.48195485     0.09400
C223        C  0.03373986  0.97014484  0.43286717    -0.54100
C224        C  0.02356038  0.94683566  0.44044266     0.10000
H225        H  0.97912118  0.00531700  0.42901003     0.14500
H226        H  0.99251439  0.93153032  0.46701129     0.00300
H227        H  0.02789037  0.00488632  0.48758859     0.14800
H228        H  0.05083138  0.97180636  0.42080318     0.14600
C229        C  0.02449000  0.93279264  0.54690291     0.86400
C230        C  0.99536863  0.93537078  0.55426009    -0.53800
C231        C  0.98422718  0.95840602  0.54672891     0.09300
C232        C  0.00325942  0.97667338  0.53245771     0.20300
C233        C  0.02390097  0.93733409  0.51727888    -0.54500
C234        C  0.01295845  0.95995658  0.50971750     0.09400
C235        C  0.03776664  0.95723907  0.55795086    -0.54100
C236        C  0.02697988  0.98011492  0.55058628     0.10000
H237        H  0.98434501  0.91994206  0.56342652     0.14500
H238        H  0.99448763  0.99523083  0.52616323     0.00300
H239        H  0.03103004  0.92416653  0.50291808     0.14800
H240        H  0.05483324  0.95648448  0.57034958     0.14600
C241        C  0.99735726  0.52298096  0.94165479     0.86400
C242        C  0.99723852  0.52762758  0.97116027    -0.53800
C243        C  0.97709265  0.51624086  0.98453596     0.09300
C244        C  0.95816752  0.50103602  0.96616673     0.20300
C245        C  0.99584662  0.49346336  0.93906167    -0.54500
C246        C  0.97582284  0.48116145  0.95164218     0.09400
C247        C  0.97070911  0.53257148  0.93299256    -0.54100
C248        C  0.94990459  0.52164638  0.94543920     0.10000
H249        H  0.01179715  0.53919414  0.98069448     0.14500
H250        H  0.94164069  0.49192548  0.97636371     0.00300
H251        H  0.01040387  0.48356076  0.92787718     0.14800
H252        H  0.96853333  0.54719084  0.91803905     0.14600
C253        C  0.99107962  0.40683599  0.94743338     0.86400
C254        C  0.99371984  0.43617390  0.94283300    -0.53800
C255        C  0.97409608  0.45148593  0.95237514     0.09300
C256        C  0.95236436  0.43468845  0.96511033     0.20300
C257        C  0.98677018  0.40441607  0.97689769    -0.54500
C258        C  0.96677310  0.41888266  0.98630314     0.09400
C259        C  0.96451702  0.40001197  0.93536237    -0.54100
C260        C  0.94426651  0.41430818  0.94401320     0.10000
H261        H  0.01084138  0.44359698  0.93332984     0.14500
H262        H  0.93612645  0.44605683  0.97305484     0.00300
H263        H  0.99882304  0.39254929  0.98936753     0.14800
H264        H  0.96109604  0.38563502  0.92047708     0.14600
C265        C  0.93376610  0.41809019  0.05359746     0.86400
C266        C  0.93927315  0.44760646  0.05565411    -0.53800
C267        C  0.96258462  0.45534772  0.04609101     0.09300
C268        C  0.97893056  0.43290677  0.03515374     0.20300
C269        C  0.93726089  0.41234747  0.02444763    -0.54500
C270        C  0.96068810  0.42019396  0.01461735     0.09400
C271        C  0.95733576  0.40584845  0.06716837    -0.54100
C272        C  0.98090811  0.41315660  0.05773349     0.10000
H273        H  0.92656562  0.46188312  0.06387355     0.14500
H274        H  0.99797035  0.43933235  0.02736675     0.00300
H275        H  0.92218363  0.40357669  0.01247057     0.14800
H276        H  0.95552660  0.39314184  0.08383915     0.14600
C277        C  0.99363296  0.52283075  0.05811589     0.86400
C278        C  0.99015824  0.49314306  0.06009962    -0.53800
C279        C  0.97001366  0.48325590  0.04582612     0.09300
C280        C  0.95452016  0.50401098  0.03093615     0.20300
C281        C  0.99533561  0.52793274  0.02889936    -0.54500
C282        C  0.97550961  0.51756870  0.01398628     0.09400
C283        C  0.96697728  0.53355667  0.06586461    -0.54100
C284        C  0.94649552  0.52402979  0.05201390     0.10000
H285        H  0.00260763  0.48103794  0.07183372     0.14500
H286        H  0.93778744  0.49582478  0.02001955     0.00300
H287        H  0.01219652  0.53777271  0.02120313     0.14800
H288        H  0.96347307  0.54604332  0.08231664     0.14600
In289      In  0.11972635  0.37634698  0.14069723     1.36900
C290        C  0.07384115  0.38211582  0.11559435     0.77500
O291        O  0.10984404  0.34748787  0.17235270    -0.60900
O292        O  0.11126310  0.38733323  0.18192328    -0.51800
C293        C  0.16452637  0.35222703  0.13106838     0.70200
O294        O  0.14443087  0.34772144  0.11742580    -0.46700
C295        C  0.14240948  0.42020927  0.12757980     0.74900
O296        O  0.08745352  0.36189168  0.11295611    -0.58600
O297        O  0.13822058  0.41383767  0.15077174    -0.48700
O298        O  0.08318878  0.39792067  0.13185510    -0.55000
C299        C  0.10857234  0.36449068  0.19007877     0.85100
O300        O  0.16041408  0.36669674  0.15021602    -0.56900
O301        O  0.13444506  0.40418879  0.11079094    -0.60200
In302      In  0.13127686  0.57032880  0.13834094     1.36900
C303        C  0.08552883  0.56093694  0.11559164     0.77500
O304        O  0.14485049  0.54261704  0.10770508    -0.60900
O305        O  0.14808531  0.53255209  0.14763355    -0.51800
C306        C  0.17420857  0.59785219  0.12945557     0.70200
O307        O  0.15411360  0.60071853  0.11552437    -0.46700
C308        C  0.11972637  0.58350122  0.18674285     0.74900
O309        O  0.09559151  0.54619021  0.13214429    -0.58600
O310        O  0.12911048  0.56194049  0.18050655    -0.48700
O311        O  0.09797015  0.58187165  0.11168059    -0.55000
C312        C  0.15101601  0.52580051  0.12431454     0.85100
O313        O  0.17137196  0.58220013  0.14780751    -0.56900
O314        O  0.11537175  0.59840527  0.16778167    -0.60200
In315      In  0.33407250  0.62521086  0.89993027     1.36900
C316        C  0.36095786  0.58147389  0.90930431     0.77500
O317        O  0.36240556  0.64285511  0.92790645    -0.60900
O318        O  0.32230996  0.64026821  0.93781486    -0.51800
C319        C  0.34058630  0.67087168  0.87573468     0.70200
O320        O  0.35603697  0.65215446  0.87226301    -0.46700
C321        C  0.28657214  0.60959480  0.88571976     0.74900
O322        O  0.36434110  0.59455685  0.88874038    -0.58600
O323        O  0.29233493  0.61748445  0.90813946    -0.48700
O324        O  0.34334385  0.59030154  0.92358259    -0.55000
C325        C  0.34486417  0.64757120  0.94417282     0.85100
O326        O  0.32131301  0.66507648  0.88941155    -0.56900
O327        O  0.30571805  0.60824807  0.87043673    -0.60200
In328      In  0.32919364  0.63666862  0.09336339     1.36900
C329        C  0.35468854  0.59246132  0.08347132     0.77500
O330        O  0.29830422  0.62365351  0.12173018    -0.60900
O331        O  0.28783627  0.63093420  0.08270392    -0.51800
C332        C  0.33602655  0.68053132  0.11943385     0.70200
O333        O  0.34706528  0.65985861  0.12674806    -0.46700
C334        C  0.34367776  0.65729487  0.04947286     0.74900
O335        O  0.36040770  0.60650459  0.10294656    -0.58600
O336        O  0.32027260  0.65302366  0.05518821    -0.48700
O337        O  0.33474825  0.59983216  0.07152162    -0.55000
C338        C  0.28022232  0.62509123  0.10507299     0.85100
O339        O  0.32139523  0.67783718  0.10008012    -0.56900
O340        O  0.35994253  0.65216715  0.06704865    -0.60200
In341      In  0.13319226  0.55914231  0.85190665     1.36900
C342        C  0.08846329  0.55714114  0.87953154     0.77500
O343        O  0.12550794  0.58792111  0.81945448    -0.60900
O344        O  0.12385405  0.54753128  0.81180435    -0.51800
C345        C  0.18058534  0.57995705  0.85846723     0.70200
O346        O  0.16040388  0.59122490  0.86675817    -0.46700
C347        C  0.14840053  0.51220913  0.86273607     0.74900
O348        O  0.10868385  0.56868153  0.88767244    -0.58600
O349        O  0.14249482  0.51953652  0.84023720    -0.48700
O350        O  0.09059952  0.54925757  0.85654532    -0.55000
C351        C  0.12232472  0.57005262  0.80274992     0.85100
O352        O  0.17585547  0.55940286  0.84624204    -0.56900
O353        O  0.14604693  0.52909036  0.88027061    -0.60200
In354      In  0.12672785  0.35739886  0.86795840     1.36900
C355        C  0.08391473  0.36135081  0.89834259     0.77500
O356        O  0.14597096  0.38938473  0.89024911    -0.60900
O357        O  0.13022151  0.39695199  0.85275068    -0.51800
C358        C  0.17202850  0.33354148  0.87580732     0.70200
O359        O  0.15151561  0.32565670  0.88685993    -0.46700
C360        C  0.11614158  0.34689786  0.81799650     0.74900
O361        O  0.10650632  0.36646228  0.90614554    -0.58600
O362        O  0.11918039  0.36945349  0.82702580    -0.48700
O363        O  0.08357414  0.35118632  0.87606180    -0.55000
C364        C  0.14247367  0.40539843  0.87223635     0.85100
O365        O  0.16853175  0.35183799  0.86029614    -0.56900
O366        O  0.11704536  0.32924417  0.83513160    -0.60200
In367      In  0.33066710  0.30258945  0.90436250     1.36900
C368        C  0.35725965  0.34759139  0.90804550     0.77500
O369        O  0.29867161  0.31485908  0.87706434    -0.60900
O370        O  0.28960457  0.30879902  0.91659400    -0.51800
C371        C  0.33669315  0.25751234  0.87998605     0.70200
O372        O  0.31986218  0.26143818  0.89701746    -0.46700
C373        C  0.34594631  0.28506212  0.94934727     0.74900
O374        O  0.36210818  0.33124667  0.89037977    -0.58600
O375        O  0.32254130  0.28883960  0.94362010    -0.48700
O376        O  0.33792787  0.34151705  0.92164987    -0.55000
C377        C  0.28115483  0.31375850  0.89423038     0.85100
O378        O  0.34983288  0.27742228  0.87387330    -0.56900
O379        O  0.36200148  0.28950887  0.93155514    -0.60200
In380      In  0.32132078  0.31598785  0.09481000     1.36900
C381        C  0.34832882  0.36078316  0.08610218     0.77500
O382        O  0.35358797  0.29954529  0.07176923    -0.60900
O383        O  0.31516653  0.29964916  0.05585566    -0.51800
C384        C  0.32653186  0.27057184  0.11956250     0.70200
O385        O  0.33937670  0.29062490  0.12640409    -0.46700
C386        C  0.27244062  0.32863949  0.10677121     0.74900
O387        O  0.35237590  0.34671311  0.10588695    -0.58600
O388        O  0.27911422  0.32087551  0.08458447    -0.48700
O389        O  0.32948916  0.35283972  0.07243533    -0.55000
C390        C  0.33872862  0.29368664  0.05316401     0.85100
O391        O  0.31013384  0.27476721  0.10200426    -0.56900
O392        O  0.29120734  0.33108738  0.12259996    -0.60200
In393      In  0.37433477  0.11581947  0.14530272     1.36900
C394        C  0.38180716  0.07773862  0.10961469     0.77500
O395        O  0.34564617  0.14479214  0.12756554    -0.60900
O396        O  0.37044413  0.15707354  0.15792148    -0.51800
C397        C  0.35750039  0.09738318  0.19090799     0.70200
O398        O  0.34283192  0.09780076  0.17114161    -0.46700
C399        C  0.42176743  0.13378702  0.14193879     0.74900
O400        O  0.39495037  0.08016514  0.13009276    -0.58600
O401        O  0.40595922  0.13584572  0.12332362    -0.48700
O402        O  0.36301391  0.09336333  0.10844805    -0.55000
C403        C  0.35382796  0.16352433  0.14137302     0.85100
O404        O  0.38025719  0.10489406  0.18653279    -0.56900
O405        O  0.41297377  0.12280704  0.16189763    -0.60200
In406      In  0.57426155  0.10670559  0.15115352     1.36900
C407        C  0.56695608  0.07003714  0.11427106     0.77500
O408        O  0.53472618  0.11270645  0.16473765    -0.60900
O409        O  0.54525923  0.12883091  0.12813740    -0.51800
C410        C  0.58921031  0.09019070  0.19768822     0.70200
O411        O  0.56641931  0.09634151  0.19192663    -0.46700
C412        C  0.59380375  0.15470111  0.14909299     0.74900
O413        O  0.58561857  0.08613627  0.11373422    -0.58600
O414        O  0.57750817  0.14715346  0.16545536    -0.48700
O415        O  0.55443334  0.07073068  0.13516291    -0.55000
C416        C  0.52832017  0.12630319  0.14551685     0.85100
O417        O  0.60479155  0.09029559  0.17871190    -0.56900
O418        O  0.60276651  0.13664017  0.13509579    -0.60200
In419      In  0.62333302  0.86875125  0.35450153     1.36900
C420        C  0.57866025  0.87977811  0.38113024     0.77500
O421        O  0.64496003  0.89595325  0.38068920    -0.60900
O422        O  0.64093341  0.90497064  0.34059290    -0.51800
C423        C  0.66701515  0.84105112  0.36325937     0.70200
O424        O  0.64846905  0.84121368  0.37936517    -0.46700
C425        C  0.60944130  0.85877072  0.30516008     0.74900
O426        O  0.58772184  0.85695789  0.37995364    -0.58600
O427        O  0.61572400  0.88087440  0.31350612    -0.48700
O428        O  0.59226616  0.89578601  0.36876221    -0.55000
C429        C  0.64969175  0.91159720  0.36250530     0.85100
O430        O  0.66169495  0.85269496  0.34260380    -0.56900
O431        O  0.60859074  0.84157371  0.32269476    -0.60200
In432      In  0.63075051  0.06021896  0.35384256     1.36900
C433        C  0.58841709  0.04998813  0.38255120     0.77500
O434        O  0.61048125  0.08606284  0.32456274    -0.60900
O435        O  0.62587777  0.05020142  0.31212319    -0.51800
C436        C  0.67375119  0.08766521  0.36399142     0.70200
O437        O  0.65539685  0.08592760  0.38005823    -0.46700
C438        C  0.65538455  0.01654293  0.36111824     0.74900
O439        O  0.59969309  0.03371694  0.36845089    -0.58600
O440        O  0.64650792  0.02354040  0.33946723    -0.48700
O441        O  0.59776910  0.07271250  0.38080533    -0.55000
C442        C  0.61452273  0.07072453  0.30578777     0.85100
O443        O  0.66817328  0.07880282  0.34194941    -0.56900
O444        O  0.65181373  0.03227163  0.37948602    -0.60200
In445      In  0.55886303  0.82726406  0.15294692     1.36900
C446        C  0.54874545  0.85548398  0.10928520     0.77500
O447        O  0.58874150  0.79723644  0.14164295    -0.60900
O448        O  0.54906613  0.78636531  0.14165204    -0.51800
C449        C  0.58581022  0.83584422  0.19676399     0.70200
O450        O  0.58561862  0.85224646  0.17843837    -0.46700
C451        C  0.51652587  0.83366807  0.18020693     0.74900
O452        O  0.57142662  0.85362329  0.11876843    -0.58600
O453        O  0.52220118  0.81252034  0.16937027    -0.48700
O454        O  0.53220044  0.84260053  0.12174120    -0.55000
C455        C  0.57221839  0.77907114  0.13940265     0.85100
O456        O  0.57459756  0.81484713  0.19118998    -0.56900
O457        O  0.53250277  0.85195188  0.17664762    -0.60200
In458      In  0.36752114  0.83512218  0.16268426     1.36900
C459        C  0.37517182  0.86398426  0.11968290     0.77500
O460        O  0.39662115  0.85769364  0.18566710    -0.60900
O461        O  0.40375664  0.81796339  0.17694252    -0.51800
C462        C  0.34036690  0.84318069  0.20576081     0.70200
O463        O  0.34299368  0.86071446  0.18881152    -0.46700
C464        C  0.35584128  0.78743765  0.14694984     0.74900
O465        O  0.35279803  0.85624518  0.12633345    -0.58600
O466        O  0.37876714  0.79511815  0.15106428    -0.48700
O467        O  0.39274296  0.85739259  0.13514602    -0.55000
C468        C  0.41182489  0.83872044  0.18730708     0.85100
O469        O  0.34929962  0.82165248  0.19912921    -0.56900
O470        O  0.33892249  0.80496394  0.14886570    -0.60200
In471      In  0.29919961  0.86842795  0.36210443     1.36900
C472        C  0.34124233  0.87581703  0.39216664     0.77500
O473        O  0.31172287  0.84119441  0.32992722    -0.60900
O474        O  0.31380582  0.88177435  0.32408069    -0.51800
C475        C  0.25500674  0.84346396  0.37184562     0.70200
O476        O  0.27262036  0.84592469  0.38882303    -0.46700
C477        C  0.27492743  0.91273283  0.36540307     0.74900
O478        O  0.33177824  0.85327561  0.38871424    -0.58600
O479        O  0.28111847  0.90231234  0.34428204    -0.48700
O480        O  0.33001045  0.89314611  0.37941054    -0.55000
C481        C  0.31602699  0.85961422  0.31421866     0.85100
O482        O  0.26181178  0.85046555  0.34956497    -0.56900
O483        O  0.28039931  0.89976254  0.38535336    -0.60200
In484      In  0.31516500  0.05863186  0.34506771     1.36900
C485        C  0.35919077  0.04894474  0.37217003     0.77500
O486        O  0.29441697  0.03371504  0.37367215    -0.60900
O487        O  0.29882669  0.02055952  0.33473964    -0.51800
C488        C  0.27171179  0.08516734  0.35375376     0.70200
O489        O  0.29128749  0.08700706  0.36862066    -0.46700
C490        C  0.32949320  0.07127969  0.29699105     0.74900
O491        O  0.34728035  0.07029711  0.37396141    -0.58600
O492        O  0.31983933  0.04956548  0.30278937    -0.48700
O493        O  0.34925998  0.03379070  0.35565119    -0.55000
C494        C  0.28970950  0.01637958  0.35703235     0.85100
O495        O  0.27586752  0.07256642  0.33331717    -0.56900
O496        O  0.33237783  0.08656161  0.31609102    -0.60200
In497      In  0.11652391  0.12155268  0.39411754     1.36900
C498        C  0.08678864  0.07922151  0.40319276     0.77500
O499        O  0.14531817  0.10972845  0.36287104    -0.60900
O500        O  0.15790560  0.11223612  0.40188833    -0.51800
C501        C  0.10854339  0.16833195  0.37349797     0.70200
O502        O  0.09432240  0.14896968  0.36762495    -0.46700
C503        C  0.10751324  0.14072147  0.44019784     0.74900
O504        O  0.08292472  0.09318950  0.38334550    -0.58600
O505        O  0.12959246  0.13303392  0.43332642    -0.48700
O506        O  0.10724866  0.08518012  0.41519913    -0.55000
C507        C  0.16421785  0.10849060  0.37865951     0.85100
O508        O  0.12757493  0.16282901  0.38770461    -0.56900
O509        O  0.08998990  0.13885413  0.42318113    -0.60200
In510      In  0.09838126  0.12353508  0.59445228     1.36900
C511        C  0.07539913  0.07699317  0.58588002     0.77500
O512        O  0.07531470  0.13538615  0.55972384    -0.60900
O513        O  0.11561013  0.14351907  0.56076472    -0.51800
C514        C  0.08528033  0.16606812  0.62182430     0.70200
O515        O  0.06875225  0.15260486  0.60959122    -0.46700
C516        C  0.14711068  0.11199095  0.60704639     0.74900
O517        O  0.06945080  0.09096022  0.60522289    -0.58600
O518        O  0.14050925  0.12252564  0.58604308    -0.48700
O519        O  0.09372935  0.08624584  0.57275954    -0.55000
C520        C  0.09485877  0.14392397  0.54787506     0.85100
O521        O  0.10727398  0.15582473  0.62269541    -0.56900
O522        O  0.12821848  0.10628972  0.62179865    -0.60200
In523      In  0.87337897  0.32852740  0.65854144     1.36900
C524        C  0.88267046  0.35423590  0.61385122     0.77500
O525        O  0.90123937  0.35673852  0.67685965    -0.60900
O526        O  0.91039240  0.31672831  0.67701910    -0.51800
C527        C  0.84619696  0.33872114  0.70126881     0.70200
O528        O  0.84583404  0.35364573  0.68181928    -0.46700
C529        C  0.85849922  0.28028946  0.64535697     0.74900
O530        O  0.86311029  0.35883727  0.62786342    -0.58600
O531        O  0.88111404  0.28648787  0.65254280    -0.48700
O532        O  0.89618916  0.33568178  0.62199143    -0.55000
C533        C  0.91698926  0.33944018  0.68343664     0.85100
O534        O  0.85798135  0.31784816  0.69742500    -0.56900
O535        O  0.84331461  0.29941858  0.64343644    -0.60200
In536      In  0.06314502  0.32343926  0.66547655     1.36900
C537        C  0.05514470  0.34986535  0.62050591     0.77500
O538        O  0.08841842  0.29147721  0.64972222    -0.60900
O539        O  0.04911988  0.28284228  0.65808987    -0.51800
C540        C  0.09091396  0.32713513  0.70951844     0.70200
O541        O  0.09481583  0.34233206  0.69056732    -0.46700
C542        C  0.02091766  0.33759081  0.68957286     0.74900
O543        O  0.04004456  0.33333126  0.63024194    -0.58600
O544        O  0.02529321  0.31479835  0.68212761    -0.48700
O545        O  0.07588554  0.35286513  0.63361367    -0.55000
C546        C  0.07071529  0.27429897  0.65085499     0.85100
O547        O  0.07475570  0.30940210  0.70474725    -0.56900
O548        O  0.03854192  0.35392816  0.68460225    -0.60200
In549      In  0.82810745  0.12644801  0.59575271     1.36900
C550        C  0.85391136  0.08124957  0.58740540     0.77500
O551        O  0.79795554  0.11216459  0.62495179    -0.60900
O552        O  0.78624573  0.12113067  0.58664391    -0.51800
C553        C  0.83540139  0.17210527  0.62008997     0.70200
O554        O  0.84867922  0.15225222  0.62574199    -0.46700
C555        C  0.84181986  0.14648042  0.55124289     0.74900
O556        O  0.85969933  0.09651205  0.60595039    -0.58600
O557        O  0.81873999  0.14016905  0.55639908    -0.48700
O558        O  0.83413545  0.08838212  0.57499010    -0.55000
C559        C  0.77930849  0.11400508  0.60891702     0.85100
O560        O  0.81771111  0.16765009  0.60379642    -0.56900
O561        O  0.85810373  0.14277635  0.56910492    -0.60200
In562      In  0.83077959  0.12010532  0.40226069     1.36900
C563        C  0.85678534  0.07598041  0.41237669     0.77500
O564        O  0.86029861  0.13883582  0.42818771    -0.60900
O565        O  0.82112182  0.13483260  0.44099525    -0.51800
C566        C  0.83764969  0.16430775  0.37660496     0.70200
O567        O  0.82032665  0.16052756  0.39323838    -0.46700
C568        C  0.78229283  0.10794139  0.38826840     0.74900
O569        O  0.86157876  0.08957585  0.39245401    -0.58600
O570        O  0.78890636  0.11461278  0.41085860    -0.48700
O571        O  0.83779114  0.08405502  0.42522081    -0.55000
C572        C  0.84395708  0.14231289  0.44595162     0.85100
O573        O  0.85116819  0.14447455  0.37151885    -0.56900
O574        O  0.80111450  0.10580746  0.37269506    -0.60200
In575      In  0.87325205  0.31973266  0.33705500     1.36900
C576        C  0.87989462  0.34604899  0.38145886     0.77500
O577        O  0.84467138  0.28896757  0.35073511    -0.60900
O578        O  0.88382160  0.27886563  0.34465824    -0.51800
C579        C  0.84599567  0.32965462  0.29482740     0.70200
O580        O  0.84434670  0.34370212  0.31486072    -0.46700
C581        C  0.91768694  0.33106785  0.31452954     0.74900
O582        O  0.85963196  0.34847036  0.36776114    -0.58600
O583        O  0.91020966  0.30823954  0.31901103    -0.48700
O584        O  0.89552081  0.32953903  0.37288553    -0.55000
C585        C  0.86139405  0.27111984  0.35033250     0.85100
O586        O  0.85956946  0.30974694  0.29752936    -0.56900
O587        O  0.90188947  0.34843236  0.32094408    -0.60200
In588      In  0.06881696  0.32557205  0.34355795     1.36900
C589        C  0.06041373  0.35306977  0.38764106     0.77500
O590        O  0.04026273  0.35171877  0.32469391    -0.60900
O591        O  0.03113696  0.31150964  0.32796702    -0.51800
C592        C  0.09255544  0.33678192  0.29864176     0.70200
O593        O  0.08347492  0.31489021  0.30434632    -0.46700
C594        C  0.08161443  0.27674166  0.35618754     0.74900
O595        O  0.08293316  0.35116488  0.37796516    -0.58600
O596        O  0.05887909  0.28405940  0.35132060    -0.48700
O597        O  0.04352918  0.33995653  0.37570219    -0.55000
C598        C  0.02408739  0.33370887  0.32065162     0.85100
O599        O  0.09256000  0.35261862  0.31745499    -0.56900
O600        O  0.09812087  0.29511702  0.35637781    -0.60200
In601      In  0.56229418  0.10624078  0.83703765     1.36900
C602        C  0.55262228  0.07674311  0.87970653     0.77500
O603        O  0.59127995  0.13722721  0.85084958    -0.60900
O604        O  0.55154815  0.14647372  0.84831782    -0.51800
C605        C  0.58688384  0.09721723  0.79191203     0.70200
O606        O  0.58701414  0.08086207  0.81022341    -0.46700
C607        C  0.51801955  0.10069236  0.81246083     0.74900
O608        O  0.53622654  0.09017242  0.86784868    -0.58600
O609        O  0.52600679  0.12210575  0.82136911    -0.48700
O610        O  0.57532459  0.07909896  0.87046758    -0.55000
C611        C  0.57418144  0.15469731  0.85261613     0.85100
O612        O  0.57690206  0.11842609  0.79816094    -0.56900
O613        O  0.53298620  0.08183362  0.81613825    -0.60200
In614      In  0.36908428  0.10456504  0.83165709     1.36900
C615        C  0.37722269  0.07367303  0.87285222     0.77500
O616        O  0.39706320  0.08260219  0.80740591    -0.60900
O617        O  0.40475784  0.12227686  0.81647284    -0.51800
C618        C  0.34041788  0.09739575  0.78919746     0.70200
O619        O  0.34266616  0.07990608  0.80618859    -0.46700
C620        C  0.35939906  0.15148432  0.85074750     0.74900
O621        O  0.35477565  0.08113390  0.86639239    -0.58600
O622        O  0.38185758  0.14351212  0.84580414    -0.48700
O623        O  0.39483615  0.08151607  0.85804332    -0.55000
C624        C  0.41231165  0.10177330  0.80561655     0.85100
O625        O  0.35037946  0.11875434  0.79562707    -0.56900
O626        O  0.34177223  0.13452151  0.84763458    -0.60200
In627      In  0.63550230  0.86680586  0.63085311     1.36900
C628        C  0.59280261  0.87833170  0.60277118     0.77500
O629        O  0.61817456  0.83744059  0.65876634    -0.60900
O630        O  0.62601585  0.87572717  0.67168382    -0.51800
C631        C  0.67941915  0.84080814  0.62241904     0.70200
O632        O  0.67401902  0.85199529  0.64330651    -0.46700
C633        C  0.65851880  0.91206487  0.62637717     0.74900
O634        O  0.60297212  0.85604070  0.60144070    -0.58600
O635        O  0.65203291  0.90238990  0.64781794    -0.48700
O636        O  0.60376400  0.89297598  0.61896107    -0.55000
C637        C  0.61852006  0.85328991  0.67758845     0.85100
O638        O  0.66106567  0.84082434  0.60598815    -0.56900
O639        O  0.65445025  0.89766867  0.60692239    -0.60200
In640      In  0.62534274  0.06196441  0.63498930     1.36900
C641        C  0.58256743  0.05403481  0.60403563     0.77500
O642        O  0.64903421  0.03403250  0.61245376    -0.60900
O643        O  0.63946863  0.02512764  0.65157147    -0.51800
C644        C  0.67013313  0.08825327  0.62700398     0.70200
O645        O  0.65269892  0.08626855  0.60971867    -0.46700
C646        C  0.60978732  0.07316663  0.68338686     0.74900
O647        O  0.59137874  0.07650264  0.60922324    -0.58600
O648        O  0.61354099  0.05054273  0.67509786    -0.48700
O649        O  0.59537833  0.03638081  0.61474236    -0.55000
C650        C  0.65090043  0.01839400  0.63110618     0.85100
O651        O  0.66309715  0.07956279  0.64861092    -0.56900
O652        O  0.61181552  0.09038299  0.66597939    -0.60200
In653      In  0.56307192  0.82620969  0.82849409     1.36900
C654        C  0.55349309  0.85393049  0.87197553     0.77500
O655        O  0.53524448  0.85311727  0.80880018    -0.60900
O656        O  0.52511344  0.81341098  0.81413103    -0.51800
C657        C  0.58890944  0.83290234  0.78419217     0.70200
O658        O  0.59421905  0.84644000  0.80413146    -0.46700
C659        C  0.57667395  0.77829603  0.84261537     0.74900
O660        O  0.57226445  0.85939985  0.85711388    -0.58600
O661        O  0.55436432  0.78442306  0.83506241    -0.48700
O662        O  0.54118957  0.83385304  0.86518547    -0.55000
C663        C  0.51874854  0.83522142  0.80537932     0.85100
O664        O  0.57222203  0.81551186  0.78807853    -0.56900
O665        O  0.59233255  0.79734106  0.84420263    -0.60200
In666      In  0.37131854  0.82835421  0.83570089     1.36900
C667        C  0.37985297  0.85683992  0.87915046     0.77500
O668        O  0.34489289  0.79670660  0.85149394    -0.60900
O669        O  0.38429517  0.78800664  0.84466533    -0.51800
C670        C  0.34365099  0.83643811  0.79253846     0.70200
O671        O  0.35208770  0.81473989  0.79929270    -0.46700
C672        C  0.41396712  0.83726587  0.80911714     0.74900
O673        O  0.35719795  0.85328352  0.86999298    -0.58600
O674        O  0.40653459  0.81494774  0.81588776    -0.48700
O675        O  0.39704154  0.84496739  0.86676405    -0.55000
C676        C  0.36228884  0.77946672  0.85110890     0.85100
O677        O  0.34598614  0.85369656  0.80990021    -0.56900
O678        O  0.39926355  0.85541527  0.81594584    -0.60200
In679      In  0.31361792  0.86840378  0.63439727     1.36900
C680        C  0.35792892  0.87701026  0.60769411     0.77500
O681        O  0.29399163  0.89515340  0.60665993    -0.60900
O682        O  0.29746100  0.90575668  0.64638460    -0.51800
C683        C  0.27002154  0.84054007  0.62684377     0.70200
O684        O  0.28846644  0.84047007  0.61071182    -0.46700
C685        C  0.32653815  0.85850739  0.68338161     0.74900
O686        O  0.34406210  0.85695254  0.60385241    -0.58600
O687        O  0.32016952  0.88047812  0.67514948    -0.48700
O688        O  0.34990279  0.89112253  0.62581601    -0.55000
C689        C  0.28970325  0.91169457  0.62405487     0.85100
O690        O  0.27535299  0.85239905  0.64751211    -0.56900
O691        O  0.32823790  0.84131910  0.66578249    -0.60200
In692      In  0.30115165  0.06309432  0.63399889     1.36900
C693        C  0.34546188  0.05634481  0.60653948     0.77500
O694        O  0.31314396  0.09350918  0.66346403    -0.60900
O695        O  0.30784618  0.05448298  0.67543141    -0.51800
C696        C  0.25451871  0.08494064  0.62874029     0.70200
O697        O  0.27437017  0.09450391  0.61761175    -0.46700
C698        C  0.28264330  0.01700507  0.62450891     0.74900
O699        O  0.32712582  0.07048730  0.59847995    -0.58600
O700        O  0.29049406  0.02410061  0.64658733    -0.48700
O701        O  0.34182594  0.04807452  0.62918737    -0.55000
C702        C  0.31285441  0.07745987  0.68207468     0.85100
O703        O  0.25939950  0.06565778  0.64260214    -0.56900
O704        O  0.28465525  0.03364614  0.60673112    -0.60200
In705      In  0.80898200  0.56471805  0.13486096     1.36900
C706        C  0.85158400  0.55341572  0.10603433     0.77500
O707        O  0.82844667  0.59226241  0.16385787    -0.60900
O708        O  0.81795871  0.55434007  0.17560583    -0.51800
C709        C  0.76550596  0.59256264  0.12831022     0.70200
O710        O  0.77269927  0.58319521  0.14956142    -0.46700
C711        C  0.78285465  0.52102279  0.12951822     0.74900
O712        O  0.84094383  0.57550729  0.10492045    -0.58600
O713        O  0.79184418  0.52887620  0.15088810    -0.48700
O714        O  0.84056309  0.53841184  0.12173630    -0.55000
C715        C  0.82703084  0.57606248  0.18229647     0.85100
O716        O  0.78236240  0.59052764  0.11063287    -0.56900
O717        O  0.78692562  0.53591311  0.11058249    -0.60200
In718      In  0.80350378  0.37221969  0.14402897     1.36900
C719        C  0.84407074  0.38090438  0.11311279     0.77500
O720        O  0.78203505  0.39746678  0.11595201    -0.60900
O721        O  0.79072635  0.41113415  0.15415404    -0.51800
C722        C  0.75880768  0.34655515  0.14532977     0.70200
O723        O  0.77704297  0.33951578  0.13043853    -0.46700
C724        C  0.82111695  0.35983637  0.19039710     0.74900
O725        O  0.82906599  0.36164624  0.10928600    -0.58600
O726        O  0.81436486  0.38239783  0.18431809    -0.48700
O727        O  0.83950320  0.39330890  0.13359242    -0.55000
C728        C  0.78064872  0.41564270  0.13231912     0.85100
O729        O  0.76453328  0.36529896  0.15986161    -0.56900
O730        O  0.82075832  0.34368690  0.17184728    -0.60200
In731      In  0.60739298  0.31149236  0.89651603     1.36900
C732        C  0.57433177  0.35241385  0.90203915     0.77500
O733        O  0.59669428  0.29051357  0.93257458    -0.60900
O734        O  0.62606274  0.31960156  0.93432223    -0.51800
C735        C  0.59783049  0.26360645  0.87647703     0.70200
O736        O  0.58330908  0.28272785  0.87157238    -0.46700
C737        C  0.65550918  0.32211547  0.88024798     0.74900
O738        O  0.59278430  0.35248253  0.88592592    -0.58600
O739        O  0.64899612  0.31947810  0.90353626    -0.48700
O740        O  0.57106471  0.33059550  0.91238996    -0.55000
C741        C  0.61272464  0.30306218  0.94635334     0.85100
O742        O  0.61714291  0.26965031  0.89012493    -0.56900
O743        O  0.63659591  0.32112797  0.86437305    -0.60200
In744      In  0.60541914  0.31183912  0.10681295     1.36900
C745        C  0.57500171  0.35372806  0.10271178     0.77500
O746        O  0.63320085  0.32234763  0.13953397    -0.60900
O747        O  0.64778419  0.31142113  0.10267612    -0.51800
C748        C  0.59842530  0.26393380  0.12450203     0.70200
O749        O  0.59315958  0.28342829  0.13851446    -0.46700
C750        C  0.60818336  0.30543654  0.05673785     0.74900
O751        O  0.56564715  0.33162950  0.10790300    -0.58600
O752        O  0.62586336  0.31643157  0.06976771    -0.48700
O753        O  0.59937885  0.35461134  0.10377248    -0.55000
C754        C  0.65290752  0.31788479  0.12561626     0.85100
O755        O  0.60477462  0.26944992  0.10172939    -0.56900
O756        O  0.58858420  0.29833915  0.06957713    -0.60200
In757      In  0.61269653  0.62961733  0.89923957     1.36900
C758        C  0.58657602  0.58555042  0.90941585     0.77500
O759        O  0.64409666  0.61553619  0.87156383    -0.60900
O760        O  0.65335510  0.62259324  0.91097977    -0.51800
C761        C  0.60407631  0.67324705  0.87297204     0.70200
O762        O  0.62324058  0.66940204  0.88748145    -0.46700
C763        C  0.60071508  0.65236183  0.94321060     0.74900
O764        O  0.58296201  0.59770893  0.88834900    -0.58600
O765        O  0.62366983  0.64834419  0.93613383    -0.48700
O766        O  0.60490628  0.59461327  0.92289017    -0.55000
C767        C  0.66156453  0.61624625  0.88898358     0.85100
O768        O  0.58977798  0.65336431  0.86968930    -0.56900
O769        O  0.58347961  0.64527234  0.92722855    -0.60200
In770      In  0.60748781  0.62710659  0.09421232     1.36900
C771        C  0.58025932  0.58243526  0.08524239     0.77500
O772        O  0.58030471  0.64529814  0.06576738    -0.60900
O773        O  0.62040590  0.64342886  0.05676571    -0.51800
C774        C  0.59635303  0.67082188  0.11997330     0.70200
O775        O  0.58100350  0.65157044  0.11945754    -0.46700
C776        C  0.65694133  0.61563841  0.10606679     0.74900
O777        O  0.57884093  0.59458102  0.10661076    -0.58600
O778        O  0.64894490  0.62131740  0.08373952    -0.48700
O779        O  0.59668786  0.59216670  0.07006632    -0.55000
C780        C  0.59797577  0.64978977  0.04960030     0.85100
O781        O  0.61818231  0.66631014  0.11033938    -0.56900
O782        O  0.63892765  0.61396508  0.12272221    -0.60200
In783      In  0.81387898  0.56697330  0.86478452     1.36900
C784        C  0.85484374  0.55710090  0.89639185     0.77500
O785        O  0.79030248  0.54163903  0.89038185    -0.60900
O786        O  0.79805291  0.52949331  0.85152861    -0.51800
C787        C  0.77005358  0.59344626  0.87022280     0.70200
O788        O  0.78823179  0.59509211  0.88679869    -0.46700
C789        C  0.83008374  0.57803483  0.81694017     0.74900
O790        O  0.84611728  0.57983960  0.89341742    -0.58600
O791        O  0.82424819  0.55552978  0.82441288    -0.48700
O792        O  0.84332762  0.54050218  0.88256302    -0.55000
C793        C  0.78775202  0.52445491  0.87311481     0.85100
O794        O  0.77574780  0.58073290  0.85029687    -0.56900
O795        O  0.83010227  0.59486025  0.83487710    -0.60200
In796      In  0.80746502  0.37631122  0.85621346     1.36900
C797        C  0.85103301  0.38505293  0.88491892     0.77500
O798        O  0.82201187  0.34710074  0.82689971    -0.60900
O799        O  0.81413066  0.38543681  0.81460794    -0.51800
C800        C  0.76227439  0.35061363  0.85936222     0.70200
O801        O  0.78230611  0.34305508  0.87156863    -0.46700
C802        C  0.78611861  0.42010797  0.86903842     0.74900
O803        O  0.83441106  0.36781291  0.89083845    -0.58600
O804        O  0.79419379  0.41534321  0.84648119    -0.48700
O805        O  0.84620963  0.39578886  0.86351859    -0.55000
C806        C  0.82058430  0.36284594  0.80812070     0.85100
O807        O  0.76607479  0.37025958  0.84552709    -0.56900
O808        O  0.78928924  0.40234484  0.88547543    -0.60200
In809      In  0.11290021  0.79942423  0.59449476     1.36900
C810        C  0.08687227  0.84318983  0.58313969     0.77500
O811        O  0.14341932  0.81475874  0.62300146    -0.60900
O812        O  0.15494285  0.80415484  0.58517339    -0.51800
C813        C  0.10383524  0.75630493  0.62144252     0.70200
O814        O  0.09070164  0.77661375  0.62539591    -0.46700
C815        C  0.09839113  0.77664205  0.55112411     0.74900
O816        O  0.08399960  0.83170616  0.60469223    -0.58600
O817        O  0.12169124  0.78273028  0.55596824    -0.48700
O818        O  0.10441622  0.83350669  0.56938633    -0.55000
C819        C  0.16199171  0.81210761  0.60722456     0.85100
O820        O  0.12190737  0.75922488  0.60544135    -0.56900
O821        O  0.08257721  0.78138588  0.56905398    -0.60200
In822      In  0.09872639  0.80520226  0.40385926     1.36900
C823        C  0.07163077  0.84845589  0.41247017     0.77500
O824        O  0.07177211  0.78503358  0.43122032    -0.60900
O825        O  0.11237624  0.78723968  0.43968996    -0.51800
C826        C  0.09260139  0.76158636  0.37685946     0.70200
O827        O  0.07597986  0.77955469  0.37544122    -0.46700
C828        C  0.14627882  0.82187566  0.39264122     0.74900
O829        O  0.07443496  0.83933122  0.38979949    -0.58600
O830        O  0.13882743  0.81697833  0.41535479    -0.48700
O831        O  0.08262198  0.83550908  0.42987364    -0.55000
C832        C  0.09015472  0.77941813  0.44644929     0.85100
O833        O  0.11229545  0.76734337  0.39008020    -0.56900
O834        O  0.12856783  0.82005694  0.37567529    -0.60200
In835      In  0.87695079  0.60394620  0.66403007     1.36900
C836        C  0.88318067  0.57479879  0.62121771     0.77500
O837        O  0.85032919  0.63478704  0.64780644    -0.60900
O838        O  0.88984501  0.64422149  0.65434885    -0.51800
C839        C  0.85044338  0.59746585  0.70785637     0.70200
O840        O  0.84981629  0.58056264  0.69002047    -0.46700
C841        C  0.92010834  0.59416078  0.68917284     0.74900
O842        O  0.86107705  0.57831073  0.63123797    -0.58600
O843        O  0.91445298  0.61626529  0.68053703    -0.48700
O844        O  0.90132032  0.58671645  0.63257730    -0.55000
C845        C  0.86783950  0.65216180  0.64749212     0.85100
O846        O  0.86161025  0.61820107  0.70148939    -0.56900
O847        O  0.90340867  0.57664375  0.68489037    -0.60200
In848      In  0.06524448  0.60097701  0.65666226     1.36900
C849        C  0.05392618  0.57568852  0.61234678     0.77500
O850        O  0.03914274  0.57343461  0.67814177    -0.60900
O851        O  0.03075127  0.61361282  0.67820462    -0.51800
C852        C  0.09714887  0.59025452  0.69565720     0.70200
O853        O  0.08981031  0.57310478  0.67964255    -0.46700
C854        C  0.07605726  0.65015080  0.64543315     0.74900
O855        O  0.07633342  0.57500012  0.62249540    -0.58600
O856        O  0.05399204  0.64254335  0.65279852    -0.48700
O857        O  0.03875280  0.59085671  0.62370442    -0.55000
C858        C  0.02414420  0.59116701  0.68526488     0.85100
O859        O  0.09085360  0.61287914  0.68956214    -0.56900
O860        O  0.09209429  0.63199790  0.64173298    -0.60200
In861      In  0.83506992  0.80058133  0.58854445     1.36900
C862        C  0.85954144  0.84618997  0.57863872     0.77500
O863        O  0.86165000  0.78326113  0.55896787    -0.60900
O864        O  0.82082657  0.78142315  0.55310616    -0.51800
C865        C  0.84560384  0.75807348  0.61651180     0.70200
O866        O  0.82453902  0.76204863  0.60495905    -0.46700
C867        C  0.78651885  0.81439895  0.59988717     0.74900
O868        O  0.86211551  0.83458724  0.60016747    -0.58600
O869        O  0.79392654  0.80726057  0.57784486    -0.48700
O870        O  0.84435208  0.83462871  0.56330455    -0.55000
C871        C  0.84301386  0.77623980  0.54457305     0.85100
O872        O  0.86125436  0.77710711  0.61568469    -0.56900
O873        O  0.80455515  0.81543579  0.61668016    -0.60200
In874      In  0.82414804  0.79893180  0.39571593     1.36900
C875        C  0.85170596  0.84266935  0.40706603     0.77500
O876        O  0.79249981  0.81454862  0.36899679    -0.60900
O877        O  0.78260827  0.80423741  0.40731163    -0.51800
C878        C  0.83375996  0.75584143  0.36844815     0.70200
O879        O  0.84869493  0.77544265  0.36745147    -0.46700
C880        C  0.83705821  0.77496634  0.43873491     0.74900
O881        O  0.83726512  0.83046727  0.42242395    -0.58600
O882        O  0.81402033  0.78117254  0.43334269    -0.48700
O883        O  0.85061652  0.83378611  0.38407700    -0.55000
C884        C  0.77461100  0.81218460  0.38567103     0.85100
O885        O  0.81319067  0.75976418  0.38073559    -0.56900
O886        O  0.85347711  0.78010331  0.42142725    -0.60200
In887      In  0.87481086  0.59994930  0.33798866     1.36900
C888        C  0.88063895  0.57448353  0.38366648     0.77500
O889        O  0.90096224  0.56926810  0.32280836    -0.60900
O890        O  0.91431026  0.60851856  0.32474313    -0.51800
C891        C  0.85279394  0.59396814  0.29126058     0.70200
O892        O  0.84537653  0.58074635  0.31068602    -0.46700
C893        C  0.86195802  0.64877423  0.34869478     0.74900
O894        O  0.86333075  0.56802892  0.36723162    -0.58600
O895        O  0.88485930  0.64139117  0.34494550    -0.48700
O896        O  0.89291554  0.59472521  0.37741064    -0.55000
C897        C  0.91899349  0.58533645  0.31870500     0.85100
O898        O  0.86951282  0.61102001  0.29666001    -0.56900
O899        O  0.84530031  0.63049528  0.34861803    -0.60200
In900      In  0.06654029  0.60417863  0.33810282     1.36900
C901        C  0.06113057  0.57738730  0.38232160     0.77500
O902        O  0.09381059  0.63725187  0.34843446    -0.60900
O903        O  0.05323710  0.64364677  0.34811254    -0.51800
C904        C  0.09160573  0.60100800  0.29363962     0.70200
O905        O  0.10069112  0.59062158  0.31405018    -0.46700
C906        C  0.02331370  0.58771401  0.31675682     0.74900
O907        O  0.07745937  0.57077762  0.36527299    -0.58600
O908        O  0.02797439  0.61127585  0.32149342    -0.48700
O909        O  0.05009972  0.59851488  0.37743286    -0.55000
C910        C  0.07555400  0.65343868  0.35056370     0.85100
O911        O  0.07103770  0.61343873  0.29696768    -0.56900
O912        O  0.04097533  0.57217459  0.32306252    -0.60200
C913        C  0.94436490  0.57803754  0.30899727    -0.00200
C914        C  0.95675523  0.59535079  0.29216459    -0.12100
C915        C  0.98367034  0.59598314  0.29082021     0.02000
C916        C  0.99805988  0.57936893  0.30689010    -0.00300
C917        C  0.98560441  0.55889963  0.31972762    -0.12000
C918        C  0.95858211  0.55816476  0.32100653     0.01900
H919        H  0.94559442  0.61002459  0.28215465     0.14900
H920        H  0.99678558  0.54576333  0.33167747     0.14900
C921        C  0.94635422  0.53955606  0.33800009     0.36500
C922        C  0.99611953  0.61536472  0.27484890     0.36400
N923        N  0.93649628  0.52475700  0.35168709    -0.43800
N924        N  0.00612022  0.63078687  0.26196707    -0.43800
C925        C  0.84063360  0.72944821  0.35894873    -0.00200
C926        C  0.86687416  0.72257579  0.35765830    -0.12100
C927        C  0.87433653  0.69664359  0.35429529     0.02000
C928        C  0.85524892  0.67672782  0.35204136    -0.00300
C929        C  0.82903812  0.68385579  0.35204351    -0.12000
C930        C  0.82163137  0.70976302  0.35536037     0.01900
H931        H  0.88169905  0.73734601  0.36056972     0.14900
H932        H  0.81413095  0.66908383  0.34958448     0.14900
C933        C  0.79427257  0.71547558  0.35500967     0.36500
C934        C  0.90177962  0.69123170  0.35407766     0.36400
N935        N  0.77231680  0.71993143  0.35466683    -0.43800
N936        N  0.92379796  0.68704665  0.35390554    -0.43800
C937        C  0.84642810  0.76545243  0.51850464    -0.00200
C938        C  0.86807188  0.77340965  0.50415756    -0.12100
C939        C  0.86717215  0.77305997  0.47707942     0.02000
C940        C  0.84402754  0.76512985  0.46448530    -0.00300
C941        C  0.82448490  0.75289370  0.47885487    -0.12000
C942        C  0.82571552  0.75263133  0.50582166     0.01900
H943        H  0.88450474  0.78247348  0.51389958     0.14900
H944        H  0.80719624  0.74556044  0.46914927     0.14900
C945        C  0.80468481  0.74075066  0.52002900     0.36500
C946        C  0.88899145  0.78369487  0.46310591     0.36400
N947        N  0.78796269  0.73111769  0.53149320    -0.43800
N948        N  0.90664596  0.79211264  0.45209397    -0.43800
C949        C  0.86288329  0.67980963  0.64061463    -0.00200
C950        C  0.83729356  0.68887239  0.64095148    -0.12100
C951        C  0.83157403  0.71475885  0.63512498     0.02000
C952        C  0.85157772  0.73225980  0.62798729    -0.00300
C953        C  0.87730028  0.72353889  0.62858474    -0.12000
C954        C  0.88311922  0.69771003  0.63495245     0.01900
H955        H  0.82161937  0.67575719  0.64614694     0.14900
H956        H  0.89287046  0.73666712  0.62312391     0.14900
C957        C  0.90999835  0.69004838  0.63478372     0.36500
C958        C  0.80499547  0.72305079  0.63736370     0.36400
N959        N  0.93151509  0.68383019  0.63477644    -0.43800
N960        N  0.78377810  0.72988555  0.63936283    -0.43800
C961        C  0.94558969  0.58907420  0.70069174    -0.00200
C962        C  0.95744432  0.56533566  0.69515986    -0.12100
C963        C  0.98448263  0.56388663  0.69396276     0.02000
C964        C  0.99936874  0.58657785  0.69845921    -0.00300
C965        C  0.98754186  0.60819384  0.70969656    -0.12000
C966        C  0.96066195  0.60964948  0.71080831     0.01900
H967        H  0.94580110  0.54901439  0.68846353     0.14900
H968        H  0.99907206  0.62520367  0.71462795     0.14900
C969        C  0.94914741  0.63351854  0.71960496     0.36500
C970        C  0.99591781  0.54007599  0.68493362     0.36400
N971        N  0.93997573  0.65269729  0.72655822    -0.43800
N972        N  0.00489662  0.52086588  0.67779677    -0.43800
C973        C  0.08899538  0.73498136  0.36615615    -0.00200
C974        C  0.06396579  0.72608113  0.35995008    -0.12100
C975        C  0.05921945  0.69985813  0.35418966     0.02000
C976        C  0.07976442  0.68170589  0.35512545    -0.00300
C977        C  0.10498399  0.69091853  0.35994926    -0.12000
C978        C  0.10979212  0.71717567  0.36519222     0.01900
H979        H  0.04787710  0.73948843  0.36032230     0.14900
H980        H  0.12108616  0.67751241  0.35989613     0.14900
C981        C  0.13637246  0.72520168  0.36955907     0.36500
C982        C  0.03308428  0.69238051  0.34705711     0.36400
N983        N  0.15760462  0.73181411  0.37306152    -0.43800
N984        N  0.01222525  0.68634326  0.34109075    -0.43800
C985        C  0.09785911  0.73030217  0.63245610    -0.00200
C986        C  0.07263975  0.72433516  0.64082320    -0.12100
C987        C  0.06522555  0.69859814  0.64623235     0.02000
C988        C  0.08296776  0.67808138  0.64210497    -0.00300
C989        C  0.10860381  0.68444088  0.63558829    -0.12000
C990        C  0.11626798  0.71013596  0.63138934     0.01900
H991        H  0.05847047  0.73966395  0.64245437     0.14900
H992        H  0.12290727  0.66924832  0.63379419     0.14900
C993        C  0.14337861  0.71521344  0.62642232     0.36500
C994        C  0.03953301  0.69410445  0.65641133     0.36400
N995        N  0.16513112  0.71934997  0.62269022    -0.43800
N996        N  0.01908735  0.69069476  0.66499573    -0.43800
C997        C  0.09045533  0.76704270  0.52546643    -0.00200
C998        C  0.10908477  0.75432997  0.51048056    -0.12100
C999        C  0.10687762  0.75392607  0.48356624     0.02000
C1000       C  0.08627704  0.76716016  0.47166950    -0.00300
C1001       C  0.06524326  0.77523818  0.48662422    -0.12000
C1002       C  0.06714764  0.77526490  0.51365077     0.01900
H1003       H  0.12644366  0.74677287  0.51959126     0.14900
H1004       H  0.04886843  0.78456079  0.47737258     0.14900
C1005       C  0.04649548  0.78698989  0.52827888     0.36500
C1006       C  0.12695921  0.74181267  0.46842321     0.36400
N1007       N  0.02986472  0.79637287  0.53990133    -0.43800
N1008       N  0.14283417  0.73200240  0.45611275    -0.43800
C1009       C  0.83478556  0.58385238  0.78901206    -0.00200
C1010       C  0.82669485  0.56550520  0.77025753    -0.12100
C1011       C  0.82978240  0.57004525  0.74358728     0.02000
C1012       C  0.84186916  0.59313110  0.73508979    -0.00300
C1013       C  0.84910344  0.61180561  0.75380862    -0.12000
C1014       C  0.84556981  0.60751052  0.78037583     0.01900
H1015       H  0.81750741  0.54757921  0.77640537     0.14900
H1016       H  0.85831181  0.62975806  0.74778105     0.14900
C1017       C  0.85373777  0.62765894  0.79813954     0.36500
C1018       C  0.81979765  0.55095545  0.72554300     0.36400
N1019       N  0.86027844  0.64403943  0.81213119    -0.43800
N1020       N  0.81143152  0.53571701  0.71120879    -0.43800
C1021       C  0.77641385  0.49905355  0.87816495    -0.00200
C1022       C  0.76313677  0.48667827  0.85782628    -0.12100
C1023       C  0.76226637  0.45974571  0.85665657     0.02000
C1024       C  0.77558025  0.44539286  0.87558794    -0.00300
C1025       C  0.78460402  0.45762266  0.89818110    -0.12000
C1026       C  0.78492971  0.48461164  0.89971048     0.01900
H1027       H  0.75571812  0.49792552  0.84171188     0.14900
H1028       H  0.79427686  0.44642856  0.91308473     0.14900
C1029       C  0.79772669  0.49683420  0.92158058     0.36500
C1030       C  0.74945415  0.44718249  0.83498961     0.36400
N1031       N  0.80796280  0.50687180  0.93895991    -0.43800
N1032       N  0.73906155  0.43684164  0.81788039    -0.43800
C1033       C  0.68962451  0.61103081  0.88435135    -0.00200
C1034       C  0.69918365  0.61093639  0.85889021    -0.12100
C1035       C  0.72562301  0.60690918  0.85389206     0.02000
C1036       C  0.74321195  0.60276791  0.87461352    -0.00300
C1037       C  0.73382226  0.60350739  0.90004385    -0.12000
C1038       C  0.70744978  0.60744945  0.90509685     0.01900
H1039       H  0.68600530  0.61417328  0.84279427     0.14900
H1040       H  0.74695631  0.59982613  0.91609116     0.14900
C1041       C  0.69931870  0.60680672  0.93185821     0.36500
C1042       C  0.73425966  0.60739751  0.82729553     0.36400
N1043       N  0.69283952  0.60630206  0.95330828    -0.43800
N1044       N  0.74136774  0.60780465  0.80604705    -0.43800
C1045       C  0.59489086  0.66173275  0.96939230    -0.00200
C1046       C  0.57265650  0.65197098  0.98165831    -0.12100
C1047       C  0.57163168  0.65067416  0.00868813     0.02000
C1048       C  0.59310898  0.65951202  0.02339236    -0.00300
C1049       C  0.61316726  0.67319181  0.01116650    -0.12000
C1050       C  0.61408046  0.67461989  0.98423159     0.01900
H1051       H  0.55754948  0.64251364  0.97028226     0.14900
H1052       H  0.62924960  0.68085163  0.02254752     0.14900
C1053       C  0.63592071  0.68755371  0.97230441     0.36500
C1054       C  0.55015282  0.63699978  0.02044243     0.36400
N1055       N  0.65337114  0.69789932  0.96266457    -0.43800
N1056       N  0.53302759  0.62597621  0.02992335    -0.43800
C1057       C  0.68331110  0.32593338  0.87304395    -0.00200
C1058       C  0.68993676  0.33728360  0.84927145    -0.12100
C1059       C  0.71590277  0.34349883  0.84351213     0.02000
C1060       C  0.73580251  0.33907290  0.86205880    -0.00300
C1061       C  0.72942583  0.32581302  0.88482113    -0.12000
C1062       C  0.70366216  0.31884876  0.89022050     0.01900
H1063       H  0.67480573  0.34177459  0.83536268     0.14900
H1064       H  0.74450440  0.32149649  0.89885243     0.14900
C1065       C  0.69890612  0.30368716  0.91324017     0.36500
C1066       C  0.72166764  0.35379788  0.81815335     0.36400
N1067       N  0.69513903  0.29118857  0.93145846    -0.43800
N1068       N  0.72642007  0.36169694  0.79772129    -0.43800
C1069       C  0.61442586  0.29990993  0.97453235    -0.00200
C1070       C  0.59396954  0.28709308  0.98707573    -0.12100
C1071       C  0.59184868  0.28778577  0.01396601     0.02000
C1072       C  0.61061185  0.30147382  0.02869056    -0.00300
C1073       C  0.63225929  0.31231377  0.01625642    -0.12000
C1074       C  0.63439067  0.31163059  0.98940063     0.01900
H1075       H  0.57883174  0.27754725  0.97581892     0.14900
H1076       H  0.64727344  0.32213038  0.02745418     0.14900
C1077       C  0.65699276  0.32363889  0.97792108     0.36500
C1078       C  0.56990227  0.27483136  0.02563494     0.36400
N1079       N  0.67519001  0.33340499  0.96908257    -0.43800
N1080       N  0.55232030  0.26445493  0.03500035    -0.43800
C1081       C  0.73213365  0.33543617  0.14464702    -0.00200
C1082       C  0.72640728  0.31567394  0.12679713    -0.12100
C1083       C  0.70072214  0.30834388  0.12158916     0.02000
C1084       C  0.68008828  0.32089981  0.13446174    -0.00300
C1085       C  0.68584925  0.33874077  0.15412126    -0.12000
C1086       C  0.71151105  0.34619911  0.15929936     0.01900
H1087       H  0.74193441  0.30675624  0.11590924     0.14900
H1088       H  0.67017411  0.34815420  0.16436897     0.14900
C1089       C  0.71555344  0.36610775  0.17867815     0.36500
C1090       C  0.69618156  0.28829004  0.10245687     0.36400
N1091       N  0.71850627  0.38216439  0.19414553    -0.43800
N1092       N  0.69256533  0.27225336  0.08710338    -0.43800
C1093       C  0.68522782  0.61187396  0.11195940    -0.00200
C1094       C  0.69309613  0.60633319  0.13744074    -0.12100
C1095       C  0.71929457  0.60186487  0.14365072     0.02000
C1096       C  0.73854170  0.60243928  0.12400486    -0.00300
C1097       C  0.73087933  0.60942950  0.09886382    -0.12000
C1098       C  0.70478540  0.61432467  0.09273521     0.01900
H1099       H  0.67867312  0.60520161  0.15263672     0.14900
H1100       H  0.74526047  0.61034715  0.08360422     0.14900
C1101       C  0.69896607  0.62163603  0.06634729     0.36500
C1102       C  0.72554965  0.59632629  0.17038104     0.36400
N1103       N  0.69454645  0.62761031  0.04517864    -0.43800
N1104       N  0.73044655  0.59196594  0.19184598    -0.43800
C1105       C  0.84432402  0.58961190  0.26382926    -0.00200
C1106       C  0.84888852  0.60935073  0.24546634    -0.12100
C1107       C  0.84375945  0.60559572  0.21889644     0.02000
C1108       C  0.83407455  0.58146747  0.20997632    -0.00300
C1109       C  0.82962826  0.56175393  0.22837056    -0.12000
C1110       C  0.83450485  0.56558946  0.25489956     0.01900
H1111       H  0.85666686  0.62789182  0.25187376     0.14900
H1112       H  0.82216908  0.54304920  0.22206728     0.14900
C1113       C  0.83007923  0.54412569  0.27225781     0.36500
C1114       C  0.84859776  0.62687870  0.20140551     0.36400
N1115       N  0.82649876  0.52682961  0.28606350    -0.43800
N1116       N  0.85241253  0.64399392  0.18742920    -0.43800
C1117       C  0.77124171  0.49513126  0.12670396    -0.00200
C1118       C  0.77600493  0.48143931  0.10368518    -0.12100
C1119       C  0.77561547  0.45435361  0.10359996     0.02000
C1120       C  0.76984839  0.44115682  0.12678526    -0.00300
C1121       C  0.76009764  0.45492548  0.14798637    -0.12000
C1122       C  0.76109498  0.48185624  0.14832899     0.01900
H1123       H  0.78328550  0.49161906  0.08680874     0.14900
H1124       H  0.75468863  0.44464389  0.16551496     0.14900
C1125       C  0.75412947  0.49500340  0.17203448     0.36500
C1126       C  0.78511725  0.44099501  0.08095614     0.36400
N1127       N  0.74863479  0.50521213  0.19122011    -0.43800
N1128       N  0.79300108  0.43045638  0.06283240    -0.43800
C1129       C  0.18992679  0.81767861  0.61327737    -0.00200
C1130       C  0.20762310  0.81875532  0.59257108    -0.12100
C1131       C  0.23394326  0.82482202  0.59652117     0.02000
C1132       C  0.24342957  0.82980108  0.62180629    -0.19500
C1133       C  0.22597148  0.82766545  0.64267829    -0.12000
C1134       C  0.19958291  0.82161906  0.63870307     0.01900
H1135       H  0.20075482  0.81553575  0.57291332     0.14900
H1136       H  0.23283784  0.83128260  0.66227083     0.14900
C1137       C  0.18308112  0.81941451  0.66113884     0.36500
C1138       C  0.25026040  0.82725983  0.57398081     0.36400
N1139       N  0.17000718  0.81756784  0.67923329    -0.43800
N1140       N  0.26319573  0.82932374  0.55581382    -0.43800
C1141       C  0.27828710  0.93696839  0.61909346    -0.00200
C1142       C  0.26562527  0.94905579  0.63977924    -0.12100
C1143       C  0.26325752  0.97584291  0.64032779     0.02000
C1144       C  0.27387158  0.99052230  0.61993290    -0.00300
C1145       C  0.28222873  0.97820036  0.59730502    -0.12000
C1146       C  0.28471720  0.95133107  0.59676587     0.01900
H1147       H  0.25979146  0.93783884  0.65657648     0.14900
H1148       H  0.28990670  0.98960177  0.58139897     0.14900
C1149       C  0.29731381  0.93970100  0.57472244     0.36500
C1150       C  0.25195578  0.98790080  0.66290623     0.36400
N1151       N  0.30751064  0.93047502  0.55706362    -0.43800
N1152       N  0.24291244  0.99755890  0.68097214    -0.43800
C1153       C  0.33514973  0.84165083  0.76535905    -0.00200
C1154       C  0.33390479  0.86742907  0.75686664    -0.12100
C1155       C  0.33137316  0.87343887  0.73044796     0.02000
C1156       C  0.33015427  0.85331843  0.71161443    -0.00300
C1157       C  0.33042625  0.82756371  0.72020718    -0.12000
C1158       C  0.33257118  0.82157812  0.74664338     0.01900
H1159       H  0.33595543  0.88308317  0.77082872     0.14900
H1160       H  0.32866328  0.81191296  0.70621295     0.14900
C1161       C  0.33193723  0.79454208  0.75378367     0.36500
C1162       C  0.33075350  0.90053149  0.72347219     0.36400
N1163       N  0.33127850  0.77282013  0.75929911    -0.43800
N1164       N  0.33019706  0.92228720  0.71809218    -0.43800
C1165       C  0.58371888  0.75095106  0.84882317    -0.00200
C1166       C  0.60833190  0.74595085  0.85918978    -0.12100
C1167       C  0.61571107  0.72080718  0.86611652     0.02000
C1168       C  0.59830047  0.69959459  0.86259293    -0.00300
C1169       C  0.57396223  0.70441954  0.85141629    -0.12000
C1170       C  0.56653601  0.72965250  0.84454720     0.01900
H1171       H  0.62185891  0.76187793  0.86234486     0.14900
H1172       H  0.56033214  0.68851364  0.84866180     0.14900
C1173       C  0.54105668  0.73283785  0.83329272     0.36500
C1174       C  0.64121858  0.71770299  0.87731908     0.36400
N1175       N  0.52062730  0.73523135  0.82426350    -0.43800
N1176       N  0.66158891  0.71519129  0.88643712    -0.43800
C1177       C  0.49296588  0.83935445  0.79423396    -0.00200
C1178       C  0.48080984  0.86315269  0.79857051    -0.12100
C1179       C  0.45374737  0.86433161  0.79946442     0.02000
C1180       C  0.43915519  0.84121007  0.79641642    -0.00300
C1181       C  0.45130070  0.81913145  0.78646973    -0.12000
C1182       C  0.47818530  0.81808311  0.78517497     0.01900
H1183       H  0.49224718  0.88000644  0.80419592     0.14900
H1184       H  0.44002712  0.80173889  0.78236145     0.14900
C1185       C  0.49009275  0.79417547  0.77697513     0.36500
C1186       C  0.44193593  0.88874742  0.80595604     0.36400
N1187       N  0.49968994  0.77505459  0.77045123    -0.43800
N1188       N  0.43275151  0.90853831  0.81087956    -0.43800
C1189       C  0.70596973  0.83084267  0.61718810    -0.00200
C1190       C  0.71404793  0.82817531  0.59139973    -0.12100
C1191       C  0.74002931  0.82310406  0.58532416     0.02000
C1192       C  0.75876256  0.82029065  0.60537181    -0.00300
C1193       C  0.75050901  0.82217105  0.63118206    -0.12000
C1194       C  0.72451725  0.82724545  0.63724140     0.01900
H1195       H  0.70022614  0.83114886  0.57579209     0.14900
H1196       H  0.76440461  0.81954151  0.64678606     0.14900
C1197       C  0.71755323  0.82832220  0.66431033     0.36500
C1198       C  0.74689719  0.82197719  0.55822421     0.36400
N1199       N  0.71214549  0.82904796  0.68605205    -0.43800
N1200       N  0.75241895  0.82115210  0.53651336    -0.43800
C1201       C  0.61184594  0.84673156  0.70482893    -0.00200
C1202       C  0.62061935  0.86350273  0.72469069    -0.12100
C1203       C  0.61491820  0.85878856  0.75083951     0.02000
C1204       C  0.59939584  0.83721955  0.75762622    -0.00300
C1205       C  0.59135160  0.82002993  0.73777819    -0.12000
C1206       C  0.59756745  0.82441982  0.71172700     0.01900
H1207       H  0.63225909  0.88038988  0.71983018     0.14900
H1208       H  0.57964790  0.80314871  0.74250211     0.14900
C1209       C  0.58844836  0.80597656  0.69259869     0.36500
C1210       C  0.62549251  0.87634579  0.77005025     0.36400
N1211       N  0.58116938  0.79103939  0.67739678    -0.43800
N1212       N  0.63438762  0.89041417  0.78523653    -0.43800
C1213       C  0.66716092  0.93921022  0.62469328    -0.00200
C1214       C  0.67336105  0.95187703  0.64807117    -0.12100
C1215       C  0.67104954  0.97866493  0.65021254     0.02000
C1216       C  0.66307654  0.99299844  0.62841734    -0.00300
C1217       C  0.66177810  0.98093871  0.60407875    -0.12000
C1218       C  0.66337807  0.95404747  0.60202737     0.01900
H1219       H  0.67739664  0.94067529  0.66537612     0.14900
H1220       H  0.65637931  0.99207228  0.58710699     0.14900
C1221       C  0.65754566  0.94243851  0.57716021     0.36500
C1222       C  0.67516920  0.99056323  0.67530824     0.36400
N1223       N  0.65261302  0.93344319  0.55714660    -0.43800
N1224       N  0.67852945  0.99989790  0.69548587    -0.43800
C1225       C  0.31767231  0.08422339  0.70972049    -0.00200
C1226       C  0.31112367  0.06583864  0.72884539    -0.12100
C1227       C  0.31695555  0.07009442  0.75509525     0.02000
C1228       C  0.32959667  0.09323442  0.76274718    -0.00300
C1229       C  0.33484452  0.11217623  0.74379425    -0.12000
C1230       C  0.32906032  0.10790895  0.71757293     0.01900
H1231       H  0.30175421  0.04776920  0.72325811     0.14900
H1232       H  0.34455538  0.13010201  0.74925207     0.14900
C1233       C  0.33611553  0.12775003  0.69916478     0.36500
C1234       C  0.31003156  0.05025185  0.77357115     0.36400
N1235       N  0.34177299  0.14365401  0.68440408    -0.43800
N1236       N  0.30446591  0.03436481  0.78838974    -0.43800
C1237       C  0.60455280  0.07894579  0.71143164    -0.00200
C1238       C  0.60072645  0.10472385  0.71922750    -0.12100
C1239       C  0.59637834  0.11123376  0.74533881     0.02000
C1240       C  0.59539199  0.09167995  0.76466145    -0.00300
C1241       C  0.59993405  0.06598059  0.75700519    -0.12000
C1242       C  0.60467252  0.05950222  0.73092229     0.01900
H1243       H  0.60121861  0.12002214  0.70484009     0.14900
H1244       H  0.59932440  0.05070833  0.77140132     0.14900
C1245       C  0.60990382  0.03267354  0.72503651     0.36500
C1246       C  0.59322784  0.13831719  0.75159649     0.36400
N1247       N  0.61426445  0.01118173  0.72043980    -0.43800
N1248       N  0.59078674  0.16002901  0.75663136    -0.43800
C1249       C  0.59243484  0.23603409  0.86847155    -0.00200
C1250       C  0.56704875  0.22839954  0.86186920    -0.12100
C1251       C  0.56064774  0.20225161  0.85687801     0.02000
C1252       C  0.57993452  0.18274046  0.85831749    -0.00300
C1253       C  0.60542399  0.19047996  0.86428552    -0.12000
C1254       C  0.61179685  0.21659122  0.86932783     0.01900
H1255       H  0.55191292  0.24286462  0.86116852     0.14900
H1256       H  0.62057536  0.17603692  0.86505044     0.14900
C1257       C  0.63862006  0.22270393  0.87490656     0.36500
C1258       C  0.53402038  0.19622377  0.85024326     0.36400
N1259       N  0.66019043  0.22736111  0.87929750    -0.43800
N1260       N  0.51271438  0.19130069  0.84489665    -0.43800
C1261       C  0.49229760  0.09821686  0.80044031    -0.00200
C1262       C  0.48019834  0.12109137  0.79236620    -0.12100
C1263       C  0.45335587  0.12204175  0.78988141     0.02000
C1264       C  0.43854696  0.09962849  0.79518723    -0.00300
C1265       C  0.45098165  0.07574093  0.79808218    -0.12000
C1266       C  0.47783178  0.07487800  0.80131311     0.01900
H1267       H  0.49140318  0.13888731  0.79056042     0.14900
H1268       H  0.43962005  0.05831925  0.80156137     0.14900
C1269       C  0.48913822  0.05059449  0.80917125     0.36500
C1270       C  0.44143108  0.14678952  0.78482905     0.36400
N1271       N  0.49798827  0.03112467  0.81572303    -0.43800
N1272       N  0.43182248  0.16662591  0.78104867    -0.43800
C1273       C  0.82719197  0.35262027  0.21747975    -0.00200
C1274       C  0.82602210  0.32633173  0.22430829    -0.12100
C1275       C  0.83012357  0.31846951  0.24990015     0.02000
C1276       C  0.83568183  0.33710763  0.26926484    -0.00300
C1277       C  0.83595733  0.36343080  0.26271278    -0.12000
C1278       C  0.83202121  0.37135159  0.23709976     0.01900
H1279       H  0.82161312  0.31181303  0.20965719     0.14900
H1280       H  0.84073158  0.37782613  0.27738793     0.14900
C1281       C  0.83436556  0.39870982  0.23159515     0.36500
C1282       C  0.82810470  0.29118294  0.25580752     0.36400
N1283       N  0.83643848  0.42066998  0.22748249    -0.43800
N1284       N  0.82633798  0.26932057  0.26050093    -0.43800
C1285       C  0.94413519  0.33670191  0.30566144    -0.00200
C1286       C  0.95651216  0.35906132  0.31528531    -0.12100
C1287       C  0.98350741  0.35997507  0.31758686     0.02000
C1288       C  0.99805573  0.33813936  0.31017061    -0.00300
C1289       C  0.98592213  0.31787594  0.29653883    -0.12000
C1290       C  0.95903676  0.31725115  0.29378240     0.01900
H1291       H  0.94513675  0.37447534  0.32378453     0.14900
H1292       H  0.99725885  0.30162446  0.28970049     0.14900
C1293       C  0.94714223  0.29567463  0.28021884     0.36500
C1294       C  0.99529330  0.38198201  0.33055558     0.36400
N1295       N  0.93765933  0.27848009  0.26916472    -0.43800
N1296       N  0.00481777  0.39958803  0.34090680    -0.43800
C1297       C  0.85533873  0.24326445  0.35541298    -0.00200
C1298       C  0.82976673  0.23593663  0.36130641    -0.12100
C1299       C  0.82323921  0.21001485  0.36642357     0.02000
C1300       C  0.84257697  0.19067058  0.36606364    -0.00300
C1301       C  0.86786182  0.19771551  0.35900913    -0.12000
C1302       C  0.87440429  0.22360726  0.35368960     0.01900
H1303       H  0.81474342  0.25051264  0.36201285     0.14900
H1304       H  0.88287250  0.18310850  0.35868071     0.14900
C1305       C  0.90099069  0.22923597  0.34685424     0.36500
C1306       C  0.79640262  0.20377044  0.37163531     0.36400
N1307       N  0.92227109  0.23378043  0.34131604    -0.43800
N1308       N  0.77491112  0.19863778  0.37568610    -0.43800
C1309       C  0.69738895  0.09767119  0.62251542    -0.00200
C1310       C  0.71530393  0.09704296  0.64331201    -0.12100
C1311       C  0.74187766  0.10249405  0.63974437     0.02000
C1312       C  0.75132057  0.10859342  0.61478212    -0.00300
C1313       C  0.73328337  0.11001572  0.59423523    -0.12000
C1314       C  0.70678616  0.10470946  0.59779056     0.01900
H1315       H  0.70864839  0.09176890  0.66251120     0.14900
H1316       H  0.73991551  0.11504277  0.57494916     0.14900
C1317       C  0.69000733  0.10627620  0.57540406     0.36500
C1318       C  0.75879604  0.10172311  0.66210548     0.36400
N1319       N  0.67686059  0.10767516  0.55722908    -0.43800
N1320       N  0.77220532  0.10118179  0.68015082    -0.43800
C1321       C  0.84914215  0.15501036  0.52533758    -0.00200
C1322       C  0.86958778  0.14206858  0.51324279    -0.12100
C1323       C  0.87043825  0.14042691  0.48625565     0.02000
C1324       C  0.85077697  0.15231457  0.47154356    -0.00300
C1325       C  0.83307338  0.16882053  0.48361573    -0.12000
C1326       C  0.83217356  0.17031254  0.51055115     0.01900
H1327       H  0.88278370  0.13045911  0.52472305     0.14900
H1328       H  0.81835992  0.17846243  0.47214628     0.14900
C1329       C  0.81241761  0.18587406  0.52263050     0.36500
C1330       C  0.88889692  0.12308492  0.47454478     0.36400
N1331       N  0.79669848  0.19839338  0.53240867    -0.43800
N1332       N  0.90350805  0.10903647  0.46513248    -0.43800
C1333       C  0.83589704  0.34529874  0.72738803    -0.00200
C1334       C  0.83192041  0.32508155  0.74526356    -0.12100
C1335       C  0.82650718  0.33013173  0.77143705     0.02000
C1336       C  0.82556204  0.35597348  0.78048693    -0.00300
C1337       C  0.82844570  0.37616446  0.76238222    -0.12000
C1338       C  0.83340040  0.37112659  0.73613096     0.01900
H1339       H  0.83340965  0.30511941  0.73883641     0.14900
H1340       H  0.82724008  0.39614764  0.76880647     0.14900
C1341       C  0.83687775  0.39297891  0.71903177     0.36500
C1342       C  0.82140303  0.30839486  0.78828251     0.36400
N1343       N  0.83952703  0.41067032  0.70552106    -0.43800
N1344       N  0.81707816  0.29094283  0.80168357    -0.43800
C1345       C  0.85111096  0.25255318  0.64029355    -0.00200
C1346       C  0.86972730  0.23329436  0.64520010    -0.12100
C1347       C  0.86450598  0.20689952  0.64067728     0.02000
C1348       C  0.84048200  0.19905721  0.62988446    -0.00300
C1349       C  0.82145390  0.21817080  0.62589308    -0.12000
C1350       C  0.82628004  0.24449658  0.63155119     0.01900
H1351       H  0.88862124  0.23880504  0.65280776     0.14900
H1352       H  0.80260673  0.21254497  0.61823910     0.14900
C1353       C  0.80517476  0.26250772  0.62875425     0.36500
C1354       C  0.88434898  0.18847444  0.64725521     0.36400
N1355       N  0.78804707  0.27675393  0.62688729    -0.43800
N1356       N  0.90027350  0.17385465  0.65295788    -0.43800
C1357       C  0.94209413  0.34491586  0.69596044    -0.00200
C1358       C  0.95404311  0.32465339  0.70940242    -0.12100
C1359       C  0.98086633  0.32447525  0.71241604     0.02000
C1360       C  0.99577082  0.34418338  0.70073144    -0.00300
C1361       C  0.98361736  0.36689357  0.69237661    -0.12000
C1362       C  0.95656307  0.36755560  0.69028718     0.01900
H1363       H  0.94276639  0.30787083  0.71534958     0.14900
H1364       H  0.99509999  0.38266811  0.68444767     0.14900
C1365       C  0.94458827  0.39041482  0.67967725     0.36500
C1366       C  0.99293143  0.30244920  0.72468004     0.36400
N1367       N  0.93488526  0.40881549  0.67145590    -0.43800
N1368       N  0.00288216  0.28492890  0.73440164    -0.43800
C1369       C  0.17486120  0.10688838  0.61355179    -0.00200
C1370       C  0.18072853  0.09016838  0.63406982    -0.12100
C1371       C  0.20645008  0.08384784  0.64012770     0.02000
C1372       C  0.22728622  0.09406840  0.62521172    -0.00300
C1373       C  0.22148775  0.11169067  0.60540634    -0.12000
C1374       C  0.19571399  0.11829913  0.59960557     0.01900
H1375       H  0.16510627  0.08167823  0.64531205     0.14900
H1376       H  0.23710423  0.12000907  0.59404366     0.14900
C1377       C  0.19144576  0.13723682  0.57949662     0.36500
C1378       C  0.21060199  0.06684612  0.66194898     0.36400
N1379       N  0.18801180  0.15253489  0.56349715    -0.43800
N1380       N  0.21386079  0.05331164  0.67950459    -0.43800
C1381       C  0.07460391  0.24625167  0.64473955    -0.00200
C1382       C  0.05282192  0.22996378  0.64083651    -0.12100
C1383       C  0.05556913  0.20354089  0.63457432     0.02000
C1384       C  0.08056547  0.19277398  0.63207721    -0.00300
C1385       C  0.10222401  0.20881703  0.63723240    -0.12000
C1386       C  0.09948359  0.23510204  0.64363833     0.01900
H1387       H  0.03349280  0.23793575  0.64239458     0.14900
H1388       H  0.12159729  0.20095173  0.63573176     0.14900
C1389       C  0.12257034  0.24995748  0.64972754     0.36500
C1390       C  0.03243315  0.18793103  0.63117517     0.36400
N1391       N  0.14091958  0.26200364  0.65486740    -0.43800
N1392       N  0.01389432  0.17537158  0.62860571    -0.43800
C1393       C  0.10250701  0.19572142  0.36654077    -0.00200
C1394       C  0.07661061  0.20257414  0.36210658    -0.12100
C1395       C  0.06931139  0.22861211  0.35932960     0.02000
C1396       C  0.08827684  0.24875615  0.36025356    -0.00300
C1397       C  0.11430377  0.24177687  0.36412768    -0.12000
C1398       C  0.12148231  0.21575188  0.36754273     0.01900
H1399       H  0.06174159  0.18757706  0.36190905     0.14900
H1400       H  0.12918285  0.25674398  0.36473197     0.14900
C1401       C  0.14852390  0.21026672  0.37223404     0.36500
C1402       C  0.04199995  0.23384195  0.35632640     0.36400
N1403       N  0.17014742  0.20582364  0.37617920    -0.43800
N1404       N  0.02006475  0.23790472  0.35409026    -0.43800
C1405       C  0.10223393  0.14924145  0.46669968    -0.00200
C1406       C  0.07759482  0.14418199  0.47697236    -0.12100
C1407       C  0.07360300  0.14495537  0.50369762     0.02000
C1408       C  0.09464343  0.15113129  0.52032129    -0.00300
C1409       C  0.11813094  0.15979328  0.50959645    -0.12000
C1410       C  0.12215827  0.15872802  0.48297185     0.01900
H1411       H  0.06202498  0.13744969  0.46438124     0.14900
H1412       H  0.13415157  0.16548649  0.52211973     0.14900
C1413       C  0.14728814  0.16624475  0.47309303     0.36500
C1414       C  0.04842909  0.13728680  0.51332154     0.36400
N1415       N  0.16744109  0.17224693  0.46523461    -0.43800
N1416       N  0.02820594  0.13112798  0.52088661    -0.43800
C1417       C  0.24517342  0.09453438  0.36020792    -0.00200
C1418       C  0.22661512  0.09653615  0.34018251    -0.12100
C1419       C  0.20033646  0.10131515  0.34546275     0.02000
C1420       C  0.19187150  0.10377564  0.37136833    -0.00300
C1421       C  0.21060702  0.10248274  0.39132130    -0.12000
C1422       C  0.23687408  0.09794344  0.38604895     0.01900
H1423       H  0.23258140  0.09392641  0.32021862     0.14900
H1424       H  0.20470129  0.10462087  0.41135787     0.14900
C1425       C  0.25448664  0.09541515  0.40773144     0.36500
C1426       C  0.18262907  0.10366152  0.32387078     0.36400
N1427       N  0.26856553  0.09329546  0.42512295    -0.43800
N1428       N  0.16842297  0.10570078  0.30657565    -0.43800
C1429       C  0.22772788  0.83566999  0.37739388    -0.00200
C1430       C  0.20944873  0.83690833  0.35706436    -0.12100
C1431       C  0.18291288  0.83293541  0.36142427     0.02000
C1432       C  0.17394122  0.82777954  0.38675611    -0.00300
C1433       C  0.19222902  0.82638011  0.40705673    -0.12000
C1434       C  0.21881047  0.83002459  0.40261845     0.01900
H1435       H  0.21581973  0.84140310  0.33756243     0.14900
H1436       H  0.18582719  0.82202841  0.42657744     0.14900
C1437       C  0.23635419  0.82759217  0.42434598     0.36500
C1438       C  0.16556043  0.83422259  0.33941461     0.36400
N1439       N  0.25040793  0.82545671  0.44175231    -0.43800
N1440       N  0.15175480  0.83515458  0.32169168    -0.43800
C1441       C  0.26576314  0.93951185  0.36644455    -0.00200
C1442       C  0.27119694  0.95385550  0.38900058    -0.12100
C1443       C  0.27669446  0.98034251  0.38727641     0.02000
C1444       C  0.27557237  0.99239576  0.36277340    -0.00300
C1445       C  0.26448853  0.97910627  0.34173543    -0.12000
C1446       C  0.25957403  0.95267005  0.34331719     0.01900
H1447       H  0.27476935  0.94393023  0.40715730     0.14900
H1448       H  0.26221638  0.98877375  0.32320435     0.14900
C1449       C  0.25156096  0.93921936  0.31997176     0.36500
C1450       C  0.28674194  0.99350804  0.40998402     0.36400
N1451       N  0.24548239  0.92851560  0.30113273    -0.43800
N1452       N  0.29490182  0.00392768  0.42820501    -0.43800
C1453       C  0.33043095  0.84762321  0.23238597    -0.00200
C1454       C  0.33230244  0.87258590  0.24303488    -0.12100
C1455       C  0.32817919  0.87691212  0.26954830     0.02000
C1456       C  0.32171793  0.85590808  0.28613897    -0.00300
C1457       C  0.31887511  0.83110585  0.27522158    -0.12000
C1458       C  0.32308667  0.82681004  0.24872469     0.01900
H1459       H  0.33822333  0.88866768  0.23084646     0.14900
H1460       H  0.31326422  0.81492694  0.28740889     0.14900
C1461       C  0.31966116  0.80075969  0.23889730     0.36500
C1462       C  0.33157321  0.90307720  0.27908676     0.36400
N1463       N  0.31692785  0.77988781  0.23102351    -0.43800
N1464       N  0.33434668  0.92404926  0.28668206    -0.43800
C1465       C  0.58900502  0.69744371  0.12828378    -0.00200
C1466       C  0.60814713  0.71423198  0.13846873    -0.12100
C1467       C  0.60327029  0.74076888  0.14231210     0.02000
C1468       C  0.57887783  0.75120226  0.13545495    -0.00300
C1469       C  0.55957426  0.73421344  0.12594248    -0.12000
C1470       C  0.56440328  0.70772315  0.12224664     0.01900
H1471       H  0.62716148  0.70664749  0.14308517     0.14900
H1472       H  0.54068930  0.74175835  0.12076543     0.14900
C1473       C  0.54434688  0.69198120  0.11033754     0.36500
C1474       C  0.62347673  0.75660698  0.15384033     0.36400
N1475       N  0.52838274  0.67935938  0.10061562    -0.43800
N1476       N  0.63965258  0.76924316  0.16319712    -0.43800
C1477       C  0.49185347  0.83715709  0.19374385    -0.00200
C1478       C  0.48009186  0.86154515  0.19263539    -0.12100
C1479       C  0.45318074  0.86353533  0.19462809     0.02000
C1480       C  0.43823328  0.84072515  0.19775190    -0.00300
C1481       C  0.45057714  0.81754988  0.20432920    -0.12000
C1482       C  0.47739392  0.81559855  0.20244125     0.01900
H1483       H  0.49136082  0.87846617  0.18707241     0.14900
H1484       H  0.43913174  0.80024083  0.20813143     0.14900
C1485       C  0.48919721  0.79076954  0.20727938     0.36500
C1486       C  0.44144169  0.88840860  0.18988311     0.36400
N1487       N  0.49854891  0.77084043  0.21120930    -0.43800
N1488       N  0.43198116  0.90831516  0.18609446    -0.43800
C1489       C  0.70063382  0.09640888  0.37057438    -0.00200
C1490       C  0.71876116  0.09897301  0.35036231    -0.12100
C1491       C  0.74536121  0.10239070  0.35541401     0.02000
C1492       C  0.75445448  0.10373869  0.38127091    -0.00300
C1493       C  0.73622012  0.10203759  0.40144962    -0.12000
C1494       C  0.70971923  0.09814205  0.39642803     0.01900
H1495       H  0.71226025  0.09744083  0.33038326     0.14900
H1496       H  0.74275303  0.10306367  0.42144460     0.14900
C1497       C  0.69274402  0.09435374  0.41830982     0.36500
C1498       C  0.76271957  0.10422057  0.33360775     0.36400
N1499       N  0.67924519  0.09108356  0.43588788    -0.43800
N1500       N  0.77652254  0.10557383  0.31602332    -0.43800
C1501       C  0.69365606  0.83030348  0.36836123    -0.00200
C1502       C  0.70122755  0.82390769  0.39377514    -0.12100
C1503       C  0.72716364  0.81764301  0.39985393     0.02000
C1504       C  0.74650704  0.81781346  0.38028747    -0.00300
C1505       C  0.73867982  0.82309496  0.35476837    -0.12000
C1506       C  0.71281500  0.82911926  0.34865452     0.01900
H1507       H  0.68702086  0.82462885  0.40919024     0.14900
H1508       H  0.75292353  0.82269052  0.33936204     0.14900
C1509       C  0.70677420  0.83415956  0.32178508     0.36500
C1510       C  0.73334273  0.81178330  0.42653402     0.36400
N1511       N  0.70206381  0.83818737  0.30021649    -0.43800
N1512       N  0.73838089  0.80705308  0.44788884    -0.43800
C1513       C  0.60456137  0.85341741  0.27697560    -0.00200
C1514       C  0.60301966  0.82759288  0.26848390    -0.12100
C1515       C  0.59854714  0.82137261  0.24231150     0.02000
C1516       C  0.59560906  0.84127710  0.22359386    -0.00300
C1517       C  0.59823856  0.86710866  0.23186172    -0.12000
C1518       C  0.60241509  0.87334977  0.25813158     0.01900
H1519       H  0.60512875  0.81203868  0.28242599     0.14900
H1520       H  0.59569539  0.88262940  0.21795566     0.14900
C1521       C  0.60308907  0.90047563  0.26508180     0.36500
C1522       C  0.59674804  0.79424287  0.23552381     0.36400
N1523       N  0.60340860  0.92227999  0.27041013    -0.43800
N1524       N  0.59524262  0.77243745  0.23037027    -0.43800
C1525       C  0.66242958  0.93683944  0.36619342    -0.00200
C1526       C  0.67217321  0.94916277  0.34405319    -0.12100
C1527       C  0.67422332  0.97602588  0.34322706     0.02000
C1528       C  0.66613259  0.99061994  0.36480232    -0.00300
C1529       C  0.66166696  0.97811628  0.38850853    -0.12000
C1530       C  0.65975423  0.95110052  0.38938521     0.01900
H1531       H  0.67562995  0.93805367  0.32651654     0.14900
H1532       H  0.65640943  0.98933259  0.40548018     0.14900
C1533       C  0.65186583  0.93899162  0.41332914     0.36500
C1534       C  0.68202888  0.98814899  0.31923076     0.36400
N1535       N  0.64559530  0.92915081  0.43246723    -0.43800
N1536       N  0.68818372  0.99791346  0.30001608    -0.43800
C1537       C  0.59894262  0.18290131  0.14537868    -0.00200
C1538       C  0.58434171  0.20065621  0.16012661    -0.12100
C1539       C  0.58415730  0.22720946  0.15432260     0.02000
C1540       C  0.59875140  0.23655539  0.13328888    -0.00300
C1541       C  0.61444382  0.21908852  0.11949636    -0.12000
C1542       C  0.61486494  0.19262800  0.12544193     0.01900
H1543       H  0.57204057  0.19367799  0.17565830     0.14900
H1544       H  0.62644245  0.22611177  0.10373466     0.14900
C1545       C  0.63164486  0.17608782  0.11053320     0.36500
C1546       C  0.56777234  0.24402626  0.16936473     0.36400
N1547       N  0.64531883  0.16303731  0.09859711    -0.43800
N1548       N  0.55458567  0.25740782  0.18148564    -0.43800
C1549       C  0.59643186  0.08488851  0.22504362    -0.00200
C1550       C  0.58345836  0.09863821  0.24464355    -0.12100
C1551       C  0.58883854  0.09446016  0.27096845     0.02000
C1552       C  0.60758940  0.07605528  0.27824911    -0.00300
C1553       C  0.62033026  0.06206121  0.25857339    -0.12000
C1554       C  0.61499746  0.06638947  0.23221620     0.01900
H1555       H  0.56897027  0.11283894  0.23935487     0.14900
H1556       H  0.63464104  0.04766096  0.26375953     0.14900
C1557       C  0.62788002  0.05079700  0.21299567     0.36500
C1558       C  0.57410361  0.10866709  0.28994212     0.36400
N1559       N  0.63802229  0.03823832  0.19749881    -0.43800
N1560       N  0.56211392  0.12001874  0.30503680    -0.43800
C1561       C  0.34935739  0.09015718  0.21764344    -0.00200
C1562       C  0.36290174  0.10159406  0.23855545    -0.12100
C1563       C  0.35685642  0.09563822  0.26432309     0.02000
C1564       C  0.33658706  0.07805183  0.26985196    -0.00300
C1565       C  0.32321909  0.06621546  0.24898060    -0.12000
C1566       C  0.32946115  0.07205246  0.22306080     0.01900
H1567       H  0.37854593  0.11522670  0.23478032     0.14900
H1568       H  0.30791432  0.05225080  0.25291231     0.14900
C1569       C  0.31631955  0.05808953  0.20251651     0.36500
C1570       C  0.37285056  0.10662695  0.28467038     0.36400
N1571       N  0.30602437  0.04666201  0.18604645    -0.43800
N1572       N  0.38575749  0.11509458  0.30108617    -0.43800
C1573       C  0.50259308  0.13748139  0.14349193    -0.00200
C1574       C  0.49037053  0.13768576  0.11922103    -0.12100
C1575       C  0.46344897  0.13951230  0.11760425     0.02000
C1576       C  0.44898780  0.14177843  0.14065501    -0.00300
C1577       C  0.46182132  0.14619730  0.16429293    -0.12000
C1578       C  0.48857153  0.14381226  0.16596001     0.01900
H1579       H  0.50140433  0.13345781  0.10187737     0.14900
H1580       H  0.45075728  0.14896613  0.18191554     0.14900
C1581       C  0.50085109  0.14578677  0.19117425     0.36500
C1582       C  0.45128676  0.13541391  0.09265728     0.36400
N1583       N  0.51079504  0.14710327  0.21130503    -0.43800
N1584       N  0.44170134  0.13193866  0.07260791    -0.43800
C1585       C  0.33161412  0.24366972  0.12905126    -0.00200
C1586       C  0.35648450  0.23760627  0.13820019    -0.12100
C1587       C  0.36382709  0.21180016  0.14254872     0.02000
C1588       C  0.34601481  0.19114576  0.13801590    -0.00300
C1589       C  0.32084290  0.19720164  0.12977065    -0.12000
C1590       C  0.31346723  0.22307187  0.12550264     0.01900
H1591       H  0.37077576  0.25296867  0.14061953     0.14900
H1592       H  0.30686996  0.18166708  0.12660156     0.14900
C1593       C  0.28703212  0.22783121  0.11762295     0.36500
C1594       C  0.39047300  0.20706161  0.14977968     0.36400
N1595       N  0.26578982  0.23155519  0.11142948    -0.43800
N1596       N  0.41185583  0.20326177  0.15541314    -0.43800
C1597       C  0.34172552  0.23108414  0.86999782    -0.00200
C1598       C  0.36744040  0.22383313  0.86556710    -0.12100
C1599       C  0.37382901  0.19802558  0.86017369     0.02000
C1600       C  0.35403294  0.17882152  0.85827185    -0.00300
C1601       C  0.32820628  0.18628683  0.86223525    -0.12000
C1602       C  0.32195372  0.21198331  0.86829079     0.01900
H1603       H  0.38282021  0.23820116  0.86751803     0.14900
H1604       H  0.31274602  0.17199369  0.86067445     0.14900
C1605       C  0.29501360  0.21818400  0.87239935     0.36500
C1606       C  0.40098889  0.19201137  0.85749248     0.36400
N1607       N  0.27339874  0.22301099  0.87570551    -0.43800
N1608       N  0.42283347  0.18743237  0.85558829    -0.43800
C1609       C  0.35322640  0.27822561  0.97573756    -0.00200
C1610       C  0.33625032  0.26160201  0.98893788    -0.12100
C1611       C  0.33327238  0.26397385  0.01560415     0.02000
C1612       C  0.34817670  0.28257993  0.02909313    -0.00300
C1613       C  0.36856225  0.29552234  0.01664776    -0.12000
C1614       C  0.37092203  0.29390066  0.98976335     0.01900
H1615       H  0.32297498  0.24922773  0.97807239     0.14900
H1616       H  0.38012357  0.30970430  0.02725441     0.14900
C1617       C  0.38817941  0.31196533  0.97699710     0.36500
C1618       C  0.31302588  0.24919835  0.02819305     0.36400
N1619       N  0.40179177  0.32672830  0.96691860    -0.43800
N1620       N  0.29673172  0.23741169  0.03820091    -0.43800
C1621       C  0.10187004  0.33095254  0.73614529    -0.00200
C1622       C  0.10826336  0.35611469  0.74436207    -0.12100
C1623       C  0.11347166  0.36170176  0.77057129     0.02000
C1624       C  0.11213905  0.34178902  0.78957258    -0.00300
C1625       C  0.10728926  0.31631635  0.78101776    -0.12000
C1626       C  0.10241290  0.31074194  0.75471600     0.01900
H1627       H  0.10814755  0.37180319  0.73039297     0.14900
H1628       H  0.10707141  0.30061609  0.79495688     0.14900
C1629       C  0.09854061  0.28396731  0.74733521     0.36500
C1630       C  0.12000443  0.38821720  0.77700679     0.36400
N1631       N  0.09574736  0.26243475  0.74154910    -0.43800
N1632       N  0.12533830  0.40956342  0.78166421    -0.43800
C1633       C  0.19869737  0.32391536  0.88065998    -0.00200
C1634       C  0.21620004  0.32425440  0.85985346    -0.12100
C1635       C  0.24281961  0.32040813  0.86365297     0.02000
C1636       C  0.25282495  0.31709610  0.88896212    -0.00300
C1637       C  0.23511134  0.31577076  0.90975459    -0.12000
C1638       C  0.20826419  0.31873044  0.90575112     0.01900
H1639       H  0.20902944  0.32792929  0.84041369     0.14900
H1640       H  0.24221118  0.31253096  0.92928687     0.14900
C1641       C  0.19110922  0.31730935  0.92776101     0.36500
C1642       C  0.25922042  0.31957009  0.84107854     0.36400
N1643       N  0.17726617  0.31593197  0.94531562    -0.43800
N1644       N  0.27241130  0.31856934  0.82301917    -0.43800
C1645       C  0.11769489  0.57458023  0.77464728    -0.00200
C1646       C  0.12400220  0.59875429  0.76381403    -0.12100
C1647       C  0.11981234  0.60364137  0.73736708     0.02000
C1648       C  0.10863493  0.58424350  0.72130218    -0.00300
C1649       C  0.10369009  0.55970276  0.73180416    -0.12000
C1650       C  0.10801690  0.55470294  0.75808862     0.01900
H1651       H  0.13225370  0.61388618  0.77600756     0.14900
H1652       H  0.09495529  0.54468949  0.71977729     0.14900
C1653       C  0.10110448  0.52922749  0.76750766     0.36500
C1654       C  0.12725807  0.62866597  0.72720113     0.36400
N1655       N  0.09557167  0.50877749  0.77493492    -0.43800
N1656       N  0.13334345  0.64862685  0.71892174    -0.43800
C1657       C  0.15580121  0.48545948  0.86789001    -0.00200
C1658       C  0.15027540  0.47476902  0.89224808    -0.12100
C1659       C  0.14853918  0.44791796  0.89513665     0.02000
C1660       C  0.15181955  0.43203616  0.87317798    -0.00300
C1661       C  0.16112668  0.44261978  0.85006628    -0.12000
C1662       C  0.16382840  0.46924208  0.84746227     0.01900
H1663       H  0.14509672  0.48724963  0.90832964     0.14900
H1664       H  0.16502858  0.43012369  0.83359645     0.14900
C1665       C  0.17384781  0.47936640  0.82335959     0.36500
C1666       C  0.14106888  0.43742263  0.91995364     0.36400
N1667       N  0.18208324  0.48745021  0.80414478    -0.43800
N1668       N  0.13529959  0.42902402  0.93991653    -0.43800
C1669       C  0.34008339  0.70665046  0.13085548    -0.00200
C1670       C  0.32114305  0.72545806  0.12571034    -0.12100
C1671       C  0.32568515  0.75173457  0.13076932     0.02000
C1672       C  0.34961603  0.75978501  0.14156148    -0.00300
C1673       C  0.36807573  0.74081621  0.14800658    -0.12000
C1674       C  0.36350645  0.71444182  0.14283011     0.01900
H1675       H  0.30297963  0.71974299  0.11657963     0.14900
H1676       H  0.38636581  0.74662077  0.15680092     0.14900
C1677       C  0.38372157  0.69612719  0.14862299     0.36500
C1678       C  0.30598497  0.76997198  0.12316218     0.36400
N1679       N  0.39993298  0.68143765  0.15323803    -0.43800
N1680       N  0.29019129  0.78450055  0.11687090    -0.43800
C1681       C  0.34533543  0.69805773  0.86666961    -0.00200
C1682       C  0.37074534  0.70606396  0.86090783    -0.12100
C1683       C  0.37681915  0.73225311  0.85606030     0.02000
C1684       C  0.35713915  0.75136253  0.85670603    -0.00300
C1685       C  0.33159980  0.74317834  0.86168564    -0.12000
C1686       C  0.32556374  0.71704103  0.86662896     0.01900
H1687       H  0.38619388  0.69192582  0.86107111     0.14900
H1688       H  0.31613698  0.75728852  0.86176837     0.14900
C1689       C  0.29874110  0.71044005  0.87143326     0.36500
C1690       C  0.40359916  0.73875735  0.85096622     0.36400
N1691       N  0.27719509  0.70535010  0.87524896    -0.43800
N1692       N  0.42510516  0.74384092  0.84692704    -0.43800
C1693       C  0.25938792  0.60298030  0.87813685    -0.00200
C1694       C  0.25486695  0.58450875  0.85866423    -0.12100
C1695       C  0.22954554  0.57722286  0.85144872     0.02000
C1696       C  0.20780293  0.58886504  0.86359348    -0.00300
C1697       C  0.21241531  0.60794153  0.88252145    -0.12000
C1698       C  0.23776496  0.61487241  0.89001283     0.01900
H1699       H  0.27122876  0.57529241  0.84936355     0.14900
H1700       H  0.19613845  0.61705086  0.89205758     0.14900
C1701       C  0.24089494  0.63451734  0.90979314     0.36500
C1702       C  0.22679471  0.55762638  0.83154433     0.36400
N1703       N  0.24336999  0.65021055  0.92570093    -0.43800
N1704       N  0.22484478  0.54188431  0.81561206    -0.43800
C1705       C  0.35004123  0.65929642  0.96947604    -0.00200
C1706       C  0.37168047  0.65098326  0.98360716    -0.12100
C1707       C  0.37218195  0.65360015  0.01056985     0.02000
C1708       C  0.35080734  0.66496182  0.02314035    -0.00300
C1709       C  0.33175428  0.67746869  0.00841801    -0.12000
C1710       C  0.33103428  0.67445349  0.98163175     0.01900
H1711       H  0.38658927  0.63976096  0.97408037     0.14900
H1712       H  0.31573159  0.68695923  0.01803668     0.14900
C1713       C  0.30931887  0.68488588  0.96735559     0.36500
C1714       C  0.39275838  0.64113172  0.02482727     0.36400
N1715       N  0.29192192  0.69296197  0.95574756    -0.43800
N1716       N  0.40917326  0.63104242  0.03626100    -0.43800
C1717       C  0.10250126  0.59844940  0.26717923    -0.00200
C1718       C  0.09227823  0.61451545  0.24765927    -0.12100
C1719       C  0.09784737  0.61044151  0.22147677     0.02000
C1720       C  0.11453812  0.59018459  0.21424266    -0.00300
C1721       C  0.12591299  0.57498487  0.23385057    -0.12000
C1722       C  0.11992449  0.57878212  0.26008402     0.01900
H1723       H  0.07882088  0.62974774  0.25271857     0.14900
H1724       H  0.13896547  0.55946069  0.22863497     0.14900
C1725       C  0.13057890  0.56114346  0.27893955     0.36500
C1726       C  0.08464515  0.62624515  0.20257525     0.36400
N1727       N  0.13896896  0.54688514  0.29403309    -0.43800
N1728       N  0.07379944  0.63885574  0.18757275    -0.43800
C1729       C  0.19992913  0.60974495  0.12409730    -0.00200
C1730       C  0.20680410  0.61510827  0.09841009    -0.12100
C1731       C  0.23266540  0.62037918  0.09174151     0.02000
C1732       C  0.25229487  0.62076759  0.11116541    -0.00300
C1733       C  0.24497781  0.61723729  0.13708954    -0.12000
C1734       C  0.21919042  0.61177287  0.14367883     0.01900
H1735       H  0.19224354  0.61356387  0.08322999     0.14900
H1736       H  0.25953908  0.61822304  0.15230924     0.14900
C1737       C  0.21315941  0.60785215  0.17072899     0.36500
C1738       C  0.23844941  0.62394335  0.06460298     0.36400
N1739       N  0.20823683  0.60458647  0.19235301    -0.43800
N1740       N  0.24311547  0.62665996  0.04284445    -0.43800
C1741       C  0.09981569  0.34364795  0.27140276    -0.00200
C1742       C  0.10118075  0.36986712  0.26414321    -0.12100
C1743       C  0.10368824  0.37722304  0.23798298     0.02000
C1744       C  0.10522863  0.35808327  0.21820806    -0.00300
C1745       C  0.10458242  0.33193374  0.22560525    -0.12000
C1746       C  0.10181307  0.32459819  0.25163517     0.01900
H1747       H  0.09926009  0.38477132  0.27885277     0.14900
H1748       H  0.10605354  0.31695704  0.21090375     0.14900
C1749       C  0.10068328  0.29719847  0.25718329     0.36500
C1750       C  0.10393007  0.40459594  0.23217933     0.36400
N1751       N  0.09964084  0.27520423  0.26143827    -0.43800
N1752       N  0.10403166  0.42655276  0.22762331    -0.43800
C1753       C  0.19148639  0.34347301  0.12508690    -0.00200
C1754       C  0.21161096  0.35225291  0.14154802    -0.12100
C1755       C  0.23775437  0.34769961  0.13604940     0.02000
C1756       C  0.24471503  0.33385297  0.11352570    -0.00300
C1757       C  0.22461466  0.32446677  0.09723054    -0.12000
C1758       C  0.19826250  0.32905309  0.10281545     0.01900
H1759       H  0.20703205  0.36345885  0.15871246     0.14900
H1760       H  0.22946781  0.31346567  0.08001037     0.14900
C1761       C  0.17873665  0.31888010  0.08532182     0.36500
C1762       C  0.25693768  0.35839908  0.15359698     0.36400
N1763       N  0.16306137  0.31065574  0.07135679    -0.43800
N1764       N  0.27222032  0.36706416  0.16771852    -0.43800
C1765       C  0.15382470  0.44542783  0.12094055    -0.00200
C1766       C  0.14432880  0.45842277  0.09908190    -0.12100
C1767       C  0.14667788  0.48537146  0.09734304     0.02000
C1768       C  0.15856673  0.49920298  0.11791254    -0.00300
C1769       C  0.17227183  0.48559635  0.13696795    -0.12000
C1770       C  0.17004861  0.45875745  0.13861655     0.01900
H1771       H  0.13272438  0.44801036  0.08481510     0.14900
H1772       H  0.18253946  0.49611755  0.15215333     0.14900
C1773       C  0.18308179  0.44568438  0.15963725     0.36500
C1774       C  0.13445834  0.49820028  0.07572899     0.36400
N1775       N  0.19366731  0.43534525  0.17647147    -0.43800
N1776       N  0.12490518  0.50808011  0.05802250    -0.43800
C1777       C  0.87497254  0.54499893  0.09065481    -0.00200
C1778       C  0.88292004  0.55850995  0.06824024    -0.12100
C1779       C  0.90493905  0.55069490  0.05390335     0.02000
C1780       C  0.91959318  0.52903710  0.06181382    -0.00300
C1781       C  0.91143790  0.51539168  0.08381564    -0.12000
C1782       C  0.88953648  0.52288183  0.09800605     0.01900
H1783       H  0.87205784  0.57528777  0.06197429     0.14900
H1784       H  0.92311809  0.49945206  0.09080846     0.14900
C1785       C  0.88344432  0.50803675  0.12092200     0.36500
C1786       C  0.91260007  0.56546216  0.03144381     0.36400
N1787       N  0.87852599  0.49619010  0.13930505    -0.43800
N1788       N  0.91877202  0.57712474  0.01331981    -0.43800
C1789       C  0.06207559  0.55286724  0.10081257    -0.00200
C1790       C  0.06433530  0.53276409  0.08273181    -0.12100
C1791       C  0.04278477  0.52323148  0.06885974     0.02000
C1792       C  0.01764076  0.53345010  0.07326166    -0.00300
C1793       C  0.01573587  0.55388457  0.09167165    -0.12000
C1794       C  0.03747496  0.56322038  0.10553099     0.01900
H1795       H  0.08317726  0.52431849  0.07954121     0.14900
H1796       H  0.99754677  0.56311854  0.09569373     0.14900
C1797       C  0.03386723  0.58242019  0.12558076     0.36500
C1798       C  0.04725353  0.50272345  0.05031989     0.36400
N1799       N  0.03095179  0.59750139  0.14193238    -0.43800
N1800       N  0.05085628  0.48621008  0.03557461    -0.43800
C1801       C  0.86461752  0.38988307  0.09490545    -0.00200
C1802       C  0.88076425  0.37229622  0.08209419    -0.12100
C1803       C  0.90224261  0.38106736  0.06754018     0.02000
C1804       C  0.90786214  0.40806539  0.06527098    -0.00300
C1805       C  0.88970676  0.42534076  0.07598612    -0.12000
C1806       C  0.86888647  0.41665480  0.09098905     0.01900
H1807       H  0.87738267  0.35166798  0.08447258     0.14900
H1808       H  0.89134884  0.44595617  0.07338222     0.14900
C1809       C  0.85226470  0.43601567  0.10236520     0.36500
C1810       C  0.91894493  0.36180494  0.05624792     0.36400
N1811       N  0.83925127  0.45165653  0.11161158    -0.43800
N1812       N  0.93251106  0.34640164  0.04740436    -0.43800
C1813       C  0.04942516  0.38824231  0.10067520    -0.00200
C1814       C  0.03484880  0.40979916  0.10865487    -0.12100
C1815       C  0.01290398  0.41806469  0.09483379     0.02000
C1816       C  0.00536049  0.40554973  0.07161102    -0.00300
C1817       C  0.01931809  0.38354359  0.06378890    -0.12000
C1818       C  0.04090810  0.37461800  0.07823085     0.01900
H1819       H  0.04042215  0.42024381  0.12610364     0.14900
H1820       H  0.01298227  0.37296123  0.04667699     0.14900
C1821       C  0.05364161  0.35131320  0.06975246     0.36500
C1822       C  0.99777462  0.43887247  0.10558896     0.36400
N1823       N  0.06367190  0.33246619  0.06308518    -0.43800
N1824       N  0.98554054  0.45531364  0.11451794    -0.43800
C1825       C  0.91828390  0.41060933  0.93096507    -0.00200
C1826       C  0.89937025  0.39434162  0.94210001    -0.12100
C1827       C  0.87750329  0.38558253  0.92770844     0.02000
C1828       C  0.87402177  0.39313857  0.90146986    -0.00300
C1829       C  0.89272055  0.40999785  0.89072561    -0.12000
C1830       C  0.91465365  0.41832931  0.90490410     0.01900
H1831       H  0.90225078  0.38754328  0.96177479     0.14900
H1832       H  0.89060638  0.41629110  0.87078877     0.14900
C1833       C  0.93385478  0.43408024  0.89188434     0.36500
C1834       C  0.85920261  0.36857577  0.94033360     0.36400
N1835       N  0.94933713  0.44652216  0.88139757    -0.43800
N1836       N  0.84456489  0.35488552  0.95048079    -0.43800
C1837       C  0.01507143  0.39177527  0.93696830    -0.00200
C1838       C  0.01290201  0.37322345  0.91672643    -0.12100
C1839       C  0.03474282  0.36225685  0.90480320     0.02000
C1840       C  0.06002647  0.36900341  0.91314603    -0.00300
C1841       C  0.06242378  0.38602558  0.93445954    -0.12000
C1842       C  0.04056261  0.39741525  0.94614034     0.01900
H1843       H  0.99436115  0.36726797  0.90910074     0.14900
H1844       H  0.08160428  0.39155531  0.94131009     0.14900
C1845       C  0.04500934  0.41598182  0.96674503     0.36500
C1846       C  0.03041165  0.34461817  0.88340097     0.36400
N1847       N  0.04826601  0.43104975  0.98312555    -0.43800
N1848       N  0.02689507  0.33059449  0.86617292    -0.43800
C1849       C  0.92280572  0.53085842  0.93899627    -0.00200
C1850       C  0.91857844  0.55767600  0.93534414    -0.12100
C1851       C  0.89571769  0.56705936  0.92360233     0.02000
C1852       C  0.87687593  0.54948734  0.91395774    -0.00300
C1853       C  0.87986321  0.52307882  0.92005318    -0.12000
C1854       C  0.90208541  0.51384241  0.93288545     0.01900
H1855       H  0.93358393  0.57140925  0.94108568     0.14900
H1856       H  0.86488582  0.50931697  0.91426167     0.14900
C1857       C  0.90279498  0.48672794  0.93891674     0.36500
C1858       C  0.89233786  0.59468027  0.92135241     0.36400
N1859       N  0.90177601  0.46495434  0.94393054    -0.43800
N1860       N  0.88933824  0.61683371  0.91990837    -0.43800
C1861       C  0.02042764  0.53443245  0.92551205    -0.00200
C1862       C  0.04158577  0.54804535  0.93701754    -0.12100
C1863       C  0.06326643  0.55643578  0.92250115     0.02000
C1864       C  0.06466038  0.55147709  0.89557129    -0.00300
C1865       C  0.04347986  0.53854723  0.88388730    -0.12000
C1866       C  0.02180062  0.53020332  0.89826850     0.01900
H1867       H  0.04208266  0.55204798  0.95748939     0.14900
H1868       H  0.04401644  0.53433562  0.86329202     0.14900
C1869       C  0.00149015  0.51643417  0.88445119     0.36500
C1870       C  0.08414573  0.56957617  0.93603784     0.36400
N1871       N  0.98518216  0.50528478  0.87356950    -0.43800
N1872       N  0.10093217  0.58014950  0.94676598    -0.43800
C1873       C  0.03894428  0.90794246  0.55618684    -0.00200
C1874       C  0.05531142  0.89407685  0.53919066    -0.12100
C1875       C  0.07068589  0.87334449  0.54749574     0.02000
C1876       C  0.07061988  0.86547216  0.57380343    -0.00300
C1877       C  0.05449868  0.87902217  0.59099414    -0.12000
C1878       C  0.03929091  0.90017333  0.58264138     0.01900
H1879       H  0.05759377  0.89965412  0.51925700     0.14900
H1880       H  0.05425019  0.87353439  0.61126398     0.14900
C1881       C  0.02523144  0.91440821  0.60205499     0.36500
C1882       C  0.08645198  0.86074806  0.52811126     0.36400
N1883       N  0.01418654  0.92599194  0.61768347    -0.43800
N1884       N  0.09900308  0.85087386  0.51243362    -0.43800
C1885       C  0.03867164  0.00560334  0.55853055    -0.00200
C1886       C  0.02514706  0.02210282  0.57533789    -0.12100
C1887       C  0.03666941  0.04509140  0.58510521     0.02000
C1888       C  0.06228517  0.05208085  0.57794195    -0.00300
C1889       C  0.07545269  0.03566961  0.56063904    -0.12000
C1890       C  0.06403683  0.01277336  0.55103381     0.01900
H1891       H  0.00565394  0.01678555  0.58120383     0.14900
H1892       H  0.09490359  0.04075921  0.55442763     0.14900
C1893       C  0.07863420  0.99729956  0.53294219     0.36500
C1894       C  0.02143926  0.06137822  0.60180332     0.36400
N1895       N  0.09048635  0.98512938  0.51838815    -0.43800
N1896       N  0.00902514  0.07434259  0.61513685    -0.43800
C1897       C  0.05726681  0.87261299  0.41869566    -0.00200
C1898       C  0.05660280  0.89289311  0.40068822    -0.12100
C1899       C  0.04532365  0.91686172  0.40686733     0.02000
C1900       C  0.03426609  0.92107089  0.43175476    -0.00300
C1901       C  0.03370628  0.90006432  0.44904275    -0.12000
C1902       C  0.04525541  0.87631609  0.44302133     0.01900
H1903       H  0.06542498  0.89021120  0.38182820     0.14900
H1904       H  0.02450545  0.90200970  0.46764044     0.14900
C1905       C  0.04401907  0.85599378  0.46222707     0.36500
C1906       C  0.04468758  0.93619559  0.38671411     0.36400
N1907       N  0.04289671  0.83987716  0.47775675    -0.43800
N1908       N  0.04440078  0.95160045  0.37044490    -0.43800
C1909       C  0.03435201  0.01908322  0.43358053    -0.00200
C1910       C  0.05365315  0.03116214  0.44901550    -0.12100
C1911       C  0.06992799  0.05076807  0.43961674     0.02000
C1912       C  0.06855458  0.05867131  0.41335777    -0.00300
C1913       C  0.04925696  0.04712110  0.39762980    -0.12000
C1914       C  0.03250684  0.02747481  0.40732375     0.01900
H1915       H  0.05750453  0.02477217  0.46853852     0.14900
H1916       H  0.04758098  0.05302765  0.37752458     0.14900
C1917       C  0.01410925  0.01579259  0.38957046     0.36500
C1918       C  0.08773992  0.06252447  0.45802750     0.36400
N1919       N  0.99924846  0.00653133  0.37536341    -0.43800
N1920       N  0.10182565  0.07189892  0.47292871    -0.43800
C1921       C  0.90051894  0.91744530  0.55744162    -0.00200
C1922       C  0.87939328  0.90854262  0.54260448    -0.12100
C1923       C  0.86583882  0.88569990  0.54919894     0.02000
C1924       C  0.87327535  0.87099507  0.57129681    -0.00300
C1925       C  0.89460149  0.87999628  0.58604039    -0.12000
C1926       C  0.90810682  0.90291515  0.57929542     0.01900
H1927       H  0.87305164  0.91985460  0.52608239     0.14900
H1928       H  0.90079513  0.86912555  0.60288971     0.14900
C1929       C  0.92950124  0.91156607  0.59530026     0.36500
C1930       C  0.84376951  0.87847227  0.53332079     0.36400
N1931       N  0.94666053  0.91877554  0.60800025    -0.43800
N1932       N  0.82601124  0.87268388  0.52071093    -0.43800
C1933       C  0.90167758  0.01508237  0.56259511    -0.00200
C1934       C  0.87606935  0.01857356  0.55331461    -0.12100
C1935       C  0.86030882  0.03926555  0.56129409     0.02000
C1936       C  0.86946848  0.05764913  0.57971148    -0.00300
C1937       C  0.89457801  0.05398773  0.58978744    -0.12000
C1938       C  0.91051001  0.03317499  0.58177725     0.01900
H1939       H  0.86810235  0.00477502  0.53945445     0.14900
H1940       H  0.90197415  0.06763820  0.60408676     0.14900
C1941       C  0.93504005  0.03094930  0.59496613     0.36500
C1942       C  0.83458796  0.04075437  0.55021257     0.36400
N1943       N  0.95451281  0.02990118  0.60615629    -0.43800
N1944       N  0.81400561  0.04186495  0.54125842    -0.43800
C1945       C  0.90003229  0.90810964  0.43467768    -0.00200
C1946       C  0.88919678  0.88962606  0.45177947    -0.12100
C1947       C  0.87367910  0.86883049  0.44316359     0.02000
C1948       C  0.86884299  0.86479286  0.41635511    -0.00300
C1949       C  0.88114337  0.88179299  0.39888564    -0.12000
C1950       C  0.89650602  0.90306228  0.40768523     0.01900
H1951       H  0.89227284  0.89080427  0.47237395     0.14900
H1952       H  0.87841703  0.87877759  0.37824482     0.14900
C1953       C  0.90818522  0.91959299  0.38840220     0.36500
C1954       C  0.86301087  0.85195778  0.46285355     0.36400
N1955       N  0.91754679  0.93272688  0.37282238    -0.43800
N1956       N  0.85438898  0.83861497  0.47868699    -0.43800
C1957       C  0.89878002  0.00660512  0.43502203    -0.00200
C1958       C  0.88409352  0.02021214  0.45319476    -0.12100
C1959       C  0.87099116  0.04300801  0.44643862     0.02000
C1960       C  0.87203579  0.05266582  0.42064875    -0.00300
C1961       C  0.88780556  0.03958185  0.40274941    -0.12000
C1962       C  0.90101258  0.01675068  0.40968992     0.01900
H1963       H  0.88231281  0.01264037  0.47269798     0.14900
H1964       H  0.88942593  0.04687840  0.38311735     0.14900
C1965       C  0.91687831  0.00414905  0.39053015     0.36500
C1966       C  0.85708407  0.05621769  0.46674356     0.36400
N1967       N  0.92968045  0.99424228  0.37509773    -0.43800
N1968       N  0.84612998  0.06674623  0.48317655    -0.43800
C1969       C  0.53071398  0.03104289  0.94775633    -0.00200
C1970       C  0.51193987  0.03898727  0.92981191    -0.12100
C1971       C  0.51875027  0.05301252  0.90739235     0.02000
C1972       C  0.54507534  0.05983561  0.90237905    -0.00300
C1973       C  0.56405200  0.05032344  0.91946972    -0.12000
C1974       C  0.55716505  0.03585336  0.94166410     0.01900
H1975       H  0.49172733  0.03486040  0.93360210     0.14900
H1976       H  0.58434045  0.05436250  0.91565257     0.14900
C1977       C  0.57768370  0.02523628  0.95743650     0.36500
C1978       C  0.49809747  0.05966385  0.88967147     0.36400
N1979       N  0.59399820  0.01640962  0.97002291    -0.43800
N1980       N  0.48153053  0.06480777  0.87542039    -0.43800
C1981       C  0.55849397  0.05346553  0.09163236    -0.00200
C1982       C  0.53573218  0.03822226  0.09358470    -0.12100
C1983       C  0.52447317  0.02587497  0.07174593     0.02000
C1984       C  0.53533092  0.02926043  0.04671847    -0.00300
C1985       C  0.55967754  0.04212286  0.04560223    -0.12000
C1986       C  0.57093118  0.05437765  0.06731415     0.01900
H1987       H  0.52621507  0.03639468  0.11220523     0.14900
H1988       H  0.57066443  0.04256567  0.02784631     0.14900
C1989       C  0.59520253  0.06800792  0.06367364     0.36500
C1990       C  0.50181746  0.00976048  0.07572733     0.36400
N1991       N  0.61464840  0.07886591  0.06047762    -0.43800
N1992       N  0.48370800  0.99676191  0.07886228    -0.43800
C1993       C  0.40114894  0.03261754  0.94228860    -0.00200
C1994       C  0.37924985  0.04908682  0.94245563    -0.12100
C1995       C  0.37070862  0.06195536  0.92005199     0.02000
C1996       C  0.38322823  0.05787636  0.89624213    -0.00300
C1997       C  0.40360954  0.03997568  0.89531466    -0.12000
C1998       C  0.41226163  0.02709003  0.91773703     0.01900
H1999       H  0.36836713  0.05242155  0.95991124     0.14900
H2000       H  0.41314252  0.03631162  0.87697689     0.14900
C2001       C  0.43295263  0.00860229  0.91491349     0.36500
C2002       C  0.35042214  0.08094131  0.92250804     0.36400
N2003       N  0.44957623  0.99383429  0.91270212    -0.43800
N2004       N  0.33445028  0.09645109  0.92439631    -0.43800
C2005       C  0.40275718  0.03189753  0.04185488    -0.00200
C2006       C  0.42104524  0.03634519  0.06166598    -0.12100
C2007       C  0.41433989  0.04962768  0.08463625     0.02000
C2008       C  0.38884009  0.05938877  0.08803259    -0.00300
C2009       C  0.37016154  0.05307763  0.06912166    -0.12000
C2010       C  0.37666176  0.03905084  0.04666915     0.01900
H2011       H  0.44094993  0.03048940  0.05877186     0.14900
H2012       H  0.35033450  0.05940009  0.07171857     0.14900
C2013       C  0.35593368  0.03194230  0.02904584     0.36500
C2014       C  0.43447895  0.05387701  0.10374732     0.36400
N2015       N  0.33934106  0.02621857  0.01491948    -0.43800
N2016       N  0.45070194  0.05704367  0.11903755    -0.43800
C2017       C  0.52671061  0.89683741  0.93999249    -0.00200
C2018       C  0.54152783  0.90947848  0.92065444    -0.12100
C2019       C  0.55103030  0.89603391  0.89876760     0.02000
C2020       C  0.54559862  0.86931896  0.89538139    -0.00300
C2021       C  0.53071582  0.85679007  0.91439009    -0.12000
C2022       C  0.52172443  0.86988517  0.93642043     0.01900
H2023       H  0.54623927  0.92981650  0.92238743     0.14900
H2024       H  0.52630298  0.83630254  0.91225801     0.14900
C2025       C  0.50783932  0.85468904  0.95542851     0.36500
C2026       C  0.56583599  0.91033801  0.87983047     0.36400
N2027       N  0.49692850  0.84250487  0.97078034    -0.43800
N2028       N  0.57774466  0.92184962  0.86470119    -0.43800
C2029       C  0.52848749  0.89771099  0.03829962    -0.00200
C2030       C  0.50962256  0.89199607  0.05700274    -0.12100
C2031       C  0.51575671  0.87875494  0.08010031     0.02000
C2032       C  0.54166286  0.87106469  0.08549541    -0.00300
C2033       C  0.56082868  0.87798286  0.06739048    -0.12000
C2034       C  0.55454343  0.89097617  0.04410285     0.01900
H2035       H  0.48972784  0.89731362  0.05333730     0.14900
H2036       H  0.58081948  0.87277263  0.07116393     0.14900
C2037       C  0.57542845  0.89766661  0.02676411     0.36500
C2038       C  0.49483422  0.87371732  0.09797197     0.36400
N2039       N  0.59212861  0.90298624  0.01278708    -0.43800
N2040       N  0.47788926  0.86986749  0.11213117    -0.43800
C2041       C  0.39920896  0.90113664  0.94903889    -0.00200
C2042       C  0.41785129  0.89686664  0.92980800    -0.12100
C2043       C  0.41183705  0.88316013  0.90690354     0.02000
C2044       C  0.38635625  0.87341259  0.90239071    -0.00300
C2045       C  0.36716438  0.87946430  0.92064248    -0.12000
C2046       C  0.37325872  0.89325232  0.94358375     0.01900
H2047       H  0.43749753  0.90360487  0.93288085     0.14900
H2048       H  0.34736979  0.87304064  0.91722920     0.14900
C2049       C  0.35224931  0.89980500  0.96074343     0.36500
C2050       C  0.43240090  0.87963268  0.88832298     0.36400
N2051       N  0.33542306  0.90513908  0.97448501    -0.43800
N2052       N  0.44891752  0.87685245  0.87347687    -0.43800
C2053       C  0.39948210  0.90267380  0.04881785    -0.00200
C2054       C  0.37596783  0.88823452  0.04959332    -0.12100
C2055       C  0.36703699  0.87641754  0.07249481     0.02000
C2056       C  0.38135211  0.87899195  0.09569273    -0.00300
C2057       C  0.40356448  0.89498829  0.09561030    -0.12000
C2058       C  0.41225446  0.90724958  0.07289013     0.01900
H2059       H  0.36397192  0.88609298  0.03252989     0.14900
H2060       H  0.41438436  0.89785678  0.11348564     0.14900
C2061       C  0.43446635  0.92437378  0.07508274     0.36500
C2062       C  0.34370368  0.86079204  0.07130610     0.36400
N2063       N  0.45225745  0.93807575  0.07700314    -0.43800
N2064       N  0.32502592  0.84822698  0.07039812    -0.43800
C2065       C  0.36896186  0.04865214  0.59099589    -0.00200
C2066       C  0.38944550  0.03611391  0.60384334    -0.12100
C2067       C  0.41114273  0.02659791  0.59043544     0.02000
C2068       C  0.41350818  0.02963302  0.56311083    -0.00300
C2069       C  0.39271803  0.04209668  0.55012037    -0.12000
C2070       C  0.37075917  0.05130628  0.56376155     0.01900
H2071       H  0.38845984  0.03341000  0.62446679     0.14900
H2072       H  0.39288668  0.04445810  0.53014717     0.14900
C2073       C  0.34990674  0.06250285  0.54888952     0.36500
C2074       C  0.43070631  0.01359720  0.60562961     0.36400
N2075       N  0.33311977  0.07135919  0.53696533    -0.43800
N2076       N  0.44635419  0.00326899  0.61789510    -0.43800
C2077       C  0.55920415  0.04801167  0.58715381    -0.00200
C2078       C  0.55831289  0.02458678  0.57310720    -0.12100
C2079       C  0.53618898  0.01673418  0.55866984     0.02000
C2080       C  0.51289547  0.03146686  0.55954154    -0.00300
C2081       C  0.51479056  0.05592024  0.57209431    -0.12000
C2082       C  0.53740458  0.06425257  0.58540264     0.01900
H2083       H  0.57533718  0.01236923  0.57307328     0.14900
H2084       H  0.49845930  0.06894485  0.57167912     0.14900
C2085       C  0.53722384  0.08922780  0.59798927     0.36500
C2086       C  0.53930856  0.99427679  0.54236885     0.36400
N2087       N  0.53704498  0.10932163  0.60798952    -0.43800
N2088       N  0.54299007  0.97669678  0.52891295    -0.43800
C2089       C  0.42429514  0.02750222  0.42201913    -0.00200
C2090       C  0.41611849  0.01107091  0.40190428    -0.12100
C2091       C  0.39554105  0.01777389  0.38530802     0.02000
C2092       C  0.38222158  0.04159349  0.38864667    -0.00300
C2093       C  0.39048047  0.05802907  0.40900611    -0.12000
C2094       C  0.41128870  0.05125157  0.42549457     0.01900
H2095       H  0.42642266  0.99311141  0.39866932     0.14900
H2096       H  0.38062818  0.07623762  0.41215673     0.14900
C2097       C  0.41889860  0.06896384  0.44589361     0.36500
C2098       C  0.38918903  0.99978664  0.36471987     0.36400
N2099       N  0.42477657  0.08323088  0.46228221    -0.43800
N2100       N  0.38444838  0.98514745  0.34830221    -0.43800
C2101       C  0.52216469  0.02710820  0.42974840    -0.00200
C2102       C  0.54183539  0.00934838  0.42338189    -0.12100
C2103       C  0.56323885  0.01642519  0.40832948     0.02000
C2104       C  0.56648252  0.04233173  0.39992543    -0.00300
C2105       C  0.54880407  0.06087545  0.40888664    -0.12000
C2106       C  0.52712378  0.05361694  0.42394534     0.01900
H2107       H  0.54124005  0.98966214  0.43030703     0.14900
H2108       H  0.55165930  0.08105971  0.40378966     0.14900
C2109       C  0.51045251  0.07388490  0.43331888     0.36500
C2110       C  0.58183808  0.99643657  0.40248926     0.36400
N2111       N  0.49727728  0.09024302  0.44095181    -0.43800
N2112       N  0.59651353  0.98019207  0.39802130    -0.43800
C2113       C  0.41048064  0.89982060  0.43378525    -0.00200
C2114       C  0.38824392  0.91550191  0.43332269    -0.12100
C2115       C  0.36520334  0.90724122  0.42136058     0.02000
C2116       C  0.36356367  0.88254621  0.40950008    -0.00300
C2117       C  0.38418852  0.86536742  0.41318602    -0.12000
C2118       C  0.40720417  0.87352202  0.42582591     0.01900
H2119       H  0.38852459  0.93441588  0.44240533     0.14900
H2120       H  0.38265724  0.84581093  0.40558015     0.14900
C2121       C  0.42680672  0.85430564  0.43060575     0.36500
C2122       C  0.34325826  0.92445593  0.42214950     0.36400
N2123       N  0.44244030  0.83880010  0.43444137    -0.43800
N2124       N  0.32570621  0.93824482  0.42304180    -0.43800
C2125       C  0.50925823  0.90329919  0.42456620    -0.00200
C2126       C  0.52098551  0.92009415  0.40667513    -0.12100
C2127       C  0.54311437  0.91277119  0.39243449     0.02000
C2128       C  0.55443900  0.88786219  0.39573939    -0.00300
C2129       C  0.54250171  0.87100227  0.41366457    -0.12000
C2130       C  0.52025281  0.87846031  0.42784831     0.01900
H2131       H  0.51232695  0.93882917  0.40314429     0.14900
H2132       H  0.55059742  0.85192587  0.41673212     0.14900
C2133       C  0.50898161  0.86032309  0.44589894     0.36500
C2134       C  0.55311551  0.93113335  0.37382446     0.36400
N2135       N  0.49987415  0.84590934  0.46047338    -0.43800
N2136       N  0.56109454  0.94577285  0.35881560    -0.43800
C2137       C  0.42684085  0.90270613  0.56627074    -0.00200
C2138       C  0.40542177  0.89274677  0.55233371    -0.12100
C2139       C  0.38290840  0.88378939  0.56526509     0.02000
C2140       C  0.38170613  0.88424880  0.59269895    -0.00300
C2141       C  0.40273768  0.89505469  0.60640219    -0.12000
C2142       C  0.42483311  0.90447486  0.59362193     0.01900
H2143       H  0.40625148  0.89196030  0.53134688     0.14900
H2144       H  0.40169609  0.89664487  0.62734616     0.14900
C2145       C  0.44452733  0.91734496  0.60908110     0.36500
C2146       C  0.36062093  0.87615387  0.54997182     0.36400
N2147       N  0.46023432  0.92780837  0.62142271    -0.43800
N2148       N  0.34260650  0.87046671  0.53769442    -0.43800
C2149       C  0.52476425  0.90544290  0.55998929    -0.00200
C2150       C  0.54303425  0.92280452  0.57094653    -0.12100
C2151       C  0.56496969  0.91436116  0.58442649     0.02000
C2152       C  0.57020089  0.88755708  0.58690587    -0.00300
C2153       C  0.55320370  0.86996815  0.57455280    -0.12000
C2154       C  0.53075213  0.87855834  0.56135350     0.01900
H2155       H  0.54068709  0.94344591  0.56967983     0.14900
H2156       H  0.55697565  0.84936051  0.57589707     0.14900
C2157       C  0.51366532  0.85916727  0.55023291     0.36500
C2158       C  0.58151732  0.93419663  0.59575374     0.36400
N2159       N  0.49980855  0.84364994  0.54152264    -0.43800
N2160       N  0.59440453  0.95026278  0.60494718    -0.43800
C2161       C  0.39300358  0.42867408  0.05980937    -0.00200
C2162       C  0.40492744  0.40977038  0.07542620    -0.12100
C2163       C  0.39082066  0.38801657  0.08493242     0.02000
C2164       C  0.36422171  0.38438230  0.07846783    -0.00300
C2165       C  0.35263922  0.40311120  0.06247345    -0.12000
C2166       C  0.36643594  0.42500975  0.05358517     0.01900
H2167       H  0.42517066  0.41228322  0.08071680     0.14900
H2168       H  0.33240166  0.40082777  0.05704233     0.14900
C2169       C  0.35258912  0.44367410  0.03816844     0.36500
C2170       C  0.40431279  0.36940789  0.10073398     0.36400
N2171       N  0.34126820  0.45880015  0.02620539    -0.43800
N2172       N  0.41515277  0.35447542  0.11340450    -0.43800
C2173       C  0.40000388  0.52619624  0.05660572    -0.00200
C2174       C  0.38402689  0.54048057  0.03957198    -0.12100
C2175       C  0.36953219  0.56180230  0.04791041     0.02000
C2176       C  0.37037976  0.56990189  0.07416402    -0.00300
C2177       C  0.38646166  0.55619338  0.09128932    -0.12000
C2178       C  0.40065039  0.53438685  0.08297158     0.01900
H2179       H  0.38138778  0.53469356  0.01967591     0.14900
H2180       H  0.38729137  0.56197139  0.11150385     0.14900
C2181       C  0.41477305  0.52001203  0.10230457     0.36500
C2182       C  0.35385437  0.57488420  0.02870602     0.36400
N2183       N  0.42600660  0.50830985  0.11775333    -0.43800
N2184       N  0.34127275  0.58519749  0.01327860    -0.43800
C2185       C  0.53539621  0.51447962  0.05958148    -0.00200
C2186       C  0.52625527  0.52987884  0.08012603    -0.12100
C2187       C  0.54026770  0.55194383  0.08902021     0.02000
C2188       C  0.56425391  0.55896824  0.07750775    -0.00300
C2189       C  0.57289571  0.54378529  0.05657059    -0.12000
C2190       C  0.55904104  0.52182285  0.04781791     0.01900
H2191       H  0.50833403  0.52434964  0.08961941     0.14900
H2192       H  0.59098033  0.54883007  0.04710435     0.14900
C2193       C  0.57006568  0.50689053  0.02698611     0.36500
C2194       C  0.52915557  0.56729500  0.10948790     0.36400
N2195       N  0.57928095  0.49541375  0.01012040    -0.43800
N2196       N  0.51996316  0.57957539  0.12579165    -0.43800
C2197       C  0.53255303  0.41770751  0.06780219    -0.00200
C2198       C  0.51970757  0.40040457  0.08485096    -0.12100
C2199       C  0.53294238  0.37987264  0.09715908     0.02000
C2200       C  0.55967618  0.37617173  0.09275162    -0.00300
C2201       C  0.57247272  0.39344746  0.07611078    -0.12000
C2202       C  0.55949319  0.41370410  0.06376797     0.01900
H2203       H  0.49943548  0.40281342  0.08923597     0.14900
H2204       H  0.59293084  0.39082489  0.07215393     0.14900
C2205       C  0.57485705  0.43021076  0.04715377     0.36500
C2206       C  0.51885489  0.36365569  0.11506737     0.36400
N2207       N  0.58750150  0.44320122  0.03394331    -0.43800
N2208       N  0.50747536  0.35089926  0.12959774    -0.43800
C2209       C  0.53969477  0.52035042  0.93763414    -0.00200
C2210       C  0.55405582  0.53660466  0.95464219    -0.12100
C2211       C  0.56866669  0.55778741  0.94576798     0.02000
C2212       C  0.57022823  0.56337550  0.91896166    -0.00300
C2213       C  0.55569611  0.54779679  0.90176925    -0.12000
C2214       C  0.54071639  0.52655567  0.91074494     0.01900
H2215       H  0.55483792  0.53323504  0.97485428     0.14900
H2216       H  0.55636430  0.55191022  0.88121176     0.14900
C2217       C  0.52706440  0.51107322  0.89167785     0.36500
C2218       C  0.58116556  0.57393701  0.96520978     0.36400
N2219       N  0.51616687  0.49868875  0.87632224    -0.43800
N2220       N  0.59096617  0.58686315  0.98086170    -0.43800
C2221       C  0.53560721  0.42189576  0.93226132    -0.00200
C2222       C  0.54814357  0.42214552  0.90782041    -0.12100
C2223       C  0.55999385  0.39998997  0.89713167     0.02000
C2224       C  0.55913604  0.37604054  0.91031860    -0.00300
C2225       C  0.54489142  0.37509864  0.93359704    -0.12000
C2226       C  0.53322857  0.39731989  0.94451388     0.01900
H2227       H  0.54895805  0.43989402  0.89669183     0.14900
H2228       H  0.54351207  0.35688203  0.94397327     0.14900
C2229       C  0.51936458  0.39362831  0.96842505     0.36500
C2230       C  0.57293981  0.40263522  0.87253003     0.36400
N2231       N  0.50794847  0.38968061  0.98730163    -0.43800
N2232       N  0.58324758  0.40502691  0.85278627    -0.43800
C2233       C  0.37279699  0.37160296  0.91399496    -0.00200
C2234       C  0.36161853  0.38963713  0.93082167    -0.12100
C2235       C  0.37526912  0.41133670  0.93988310     0.02000
C2236       C  0.40160142  0.41565789  0.93293390    -0.00300
C2237       C  0.41269331  0.39794735  0.91524704    -0.12000
C2238       C  0.39854771  0.37628006  0.90566641     0.01900
H2239       H  0.34177935  0.38677229  0.93719179     0.14900
H2240       H  0.43223764  0.40093333  0.90837906     0.14900
C2241       C  0.41106681  0.35922125  0.88749452     0.36500
C2242       C  0.36117658  0.42877819  0.95644951     0.36400
N2243       N  0.42122878  0.34577402  0.87277454    -0.43800
N2244       N  0.34939368  0.44235030  0.96971106    -0.43800
C2245       C  0.40248778  0.51285955  0.93535247    -0.00200
C2246       C  0.41187367  0.52698770  0.91400574    -0.12100
C2247       C  0.39880645  0.54917286  0.90476524     0.02000
C2248       C  0.37599414  0.55786559  0.91720608    -0.00300
C2249       C  0.36713592  0.54382688  0.93884873    -0.12000
C2250       C  0.37975031  0.52151610  0.94760235     0.01900
H2251       H  0.42900753  0.52020717  0.90402971     0.14900
H2252       H  0.34973137  0.54993278  0.94881123     0.14900
C2253       C  0.36818169  0.50740534  0.96871622     0.36500
C2254       C  0.40904502  0.56229110  0.88233479     0.36400
N2255       N  0.35844941  0.49655028  0.98571766    -0.43800
N2256       N  0.41723742  0.57268873  0.86424374    -0.43800
C2257       C  0.05304033  0.36971583  0.41037792    -0.00200
C2258       C  0.02846188  0.38130634  0.41010949    -0.12100
C2259       C  0.01887214  0.39535400  0.43144133     0.02000
C2260       C  0.03344488  0.39717765  0.45485051    -0.00300
C2261       C  0.05894195  0.38693024  0.45426291    -0.12000
C2262       C  0.06874611  0.37355439  0.43248780     0.01900
H2263       H  0.01647766  0.37938713  0.39284896     0.14900
H2264       H  0.07146324  0.38909521  0.47106250     0.14900
C2265       C  0.09449328  0.36289830  0.43385616     0.36500
C2266       C  0.99425453  0.40776966  0.42767544     0.36400
N2267       N  0.11515429  0.35436658  0.43494603    -0.43800
N2268       N  0.97488656  0.41797165  0.42300256    -0.43800
C2269       C  0.04786966  0.36450332  0.59614743    -0.00200
C2270       C  0.06103996  0.38731219  0.58860502    -0.12100
C2271       C  0.05284917  0.40203026  0.56682702     0.02000
C2272       C  0.02979495  0.39521724  0.55295269    -0.00300
C2273       C  0.01822830  0.37121099  0.55944810    -0.12000
C2274       C  0.02687618  0.35609385  0.58031715     0.01900
H2275       H  0.07802709  0.39350671  0.59949448     0.14900
H2276       H  0.00253565  0.36353691  0.54760458     0.14900
C2277       C  0.01436657  0.33122991  0.58409510     0.36500
C2278       C  0.06970994  0.42262856  0.55809549     0.36400
N2279       N  0.00456168  0.31120499  0.58706228    -0.43800
N2280       N  0.08343515  0.43889817  0.55083515    -0.43800
C2281       C  0.03190337  0.53278915  0.44789455    -0.00200
C2282       C  0.04922236  0.52124169  0.43019939    -0.12100
C2283       C  0.05999755  0.53537024  0.40932597     0.02000
C2284       C  0.05358850  0.56172890  0.40561125    -0.00300
C2285       C  0.03702803  0.57337292  0.42363235    -0.12000
C2286       C  0.02644457  0.55958034  0.44440529     0.01900
H2287       H  0.05478716  0.50124994  0.43252644     0.14900
H2288       H  0.03192783  0.59360517  0.42138902     0.14900
C2289       C  0.00990254  0.57391272  0.46178942     0.36500
C2290       C  0.07718969  0.52212610  0.39184258     0.36400
N2291       N  0.99663771  0.58564975  0.47544209    -0.43800
N2292       N  0.09099193  0.51143924  0.37786899    -0.43800
C2293       C  0.03059512  0.53042126  0.54476365    -0.00200
C2294       C  0.01192855  0.54035598  0.56162562    -0.12100
C2295       C  0.01900050  0.55501488  0.58356887     0.02000
C2296       C  0.04557009  0.55965490  0.58950350    -0.00300
C2297       C  0.06431278  0.54828482  0.57351533    -0.12000
C2298       C  0.05712095  0.53399763  0.55130638     0.01900
H2299       H  0.99166182  0.53764141  0.55711479     0.14900
H2300       H  0.08471286  0.55105225  0.57800791     0.14900
C2301       C  0.07744757  0.52320055  0.53556076     0.36500
C2302       C  0.99836316  0.56502323  0.59949992     0.36400
N2303       N  0.09386347  0.51467669  0.52300489    -0.43800
N2304       N  0.98178728  0.57305996  0.61218331    -0.43800
C2305       C  0.90451031  0.53366434  0.45406273    -0.00200
C2306       C  0.89177829  0.52000586  0.43400386    -0.12100
C2307       C  0.88301625  0.53277917  0.41131239     0.02000
C2308       C  0.88728041  0.55979755  0.40806742    -0.00300
C2309       C  0.90046462  0.57316501  0.42803472    -0.12000
C2310       C  0.90881154  0.56059211  0.45070488     0.01900
H2311       H  0.88813400  0.49942139  0.43631078     0.14900
H2312       H  0.90427084  0.59376252  0.42600627     0.14900
C2313       C  0.92197790  0.57589884  0.47030662     0.36500
C2314       C  0.87021374  0.51754892  0.39150080     0.36400
N2315       N  0.93232331  0.58810923  0.48617303    -0.43800
N2316       N  0.85992714  0.50525214  0.37566435    -0.43800
C2317       C  0.90313871  0.52971548  0.55297987    -0.00200
C2318       C  0.87969382  0.54383196  0.55388630    -0.12100
C2319       C  0.87229706  0.55782221  0.57607801     0.02000
C2320       C  0.88823453  0.55794306  0.59829257    -0.00300
C2321       C  0.91030807  0.54216108  0.59842542    -0.12000
C2322       C  0.91722134  0.52737016  0.57661693     0.01900
H2323       H  0.86675027  0.54413763  0.53737968     0.14900
H2324       H  0.92216632  0.54121152  0.61582094     0.14900
C2325       C  0.93881121  0.50988610  0.57929311     0.36500
C2326       C  0.84892608  0.57299458  0.57506294     0.36400
N2327       N  0.95611076  0.49588959  0.58145023    -0.43800
N2328       N  0.83021432  0.58520112  0.57428091    -0.43800
C2329       C  0.90180931  0.39469387  0.44720323    -0.00200
C2330       C  0.90998769  0.36867941  0.44522558    -0.12100
C2331       C  0.90274182  0.35260918  0.42451497     0.02000
C2332       C  0.88584432  0.36176600  0.40509597    -0.00300
C2333       C  0.87604409  0.38695218  0.40757745    -0.12000
C2334       C  0.88366717  0.40341545  0.42821061     0.01900
H2335       H  0.92259694  0.36074713  0.46003829     0.14900
H2336       H  0.86269881  0.39405712  0.39296717     0.14900
C2337       C  0.87125952  0.42829814  0.42925662     0.36500
C2338       C  0.91290717  0.32659805  0.42392065     0.36400
N2339       N  0.86078732  0.44806216  0.42934370    -0.43800
N2340       N  0.92110699  0.30579418  0.42330425    -0.43800
C2341       C  0.90547310  0.39575731  0.54395846    -0.00200
C2342       C  0.89184005  0.40875180  0.56356569    -0.12100
C2343       C  0.88403679  0.39572593  0.58638553     0.02000
C2344       C  0.88983882  0.36914086  0.58991707    -0.00300
C2345       C  0.90425872  0.35657752  0.57060088    -0.12000
C2346       C  0.91191545  0.36947541  0.54790289     0.01900
H2347       H  0.88690530  0.42895955  0.56087203     0.14900
H2348       H  0.90939609  0.33639229  0.57309256     0.14900
C2349       C  0.92661115  0.35531514  0.52884007     0.36500
C2350       C  0.87106186  0.41031444  0.60632086     0.36400
N2351       N  0.93835435  0.34414118  0.51342536    -0.43800
N2352       N  0.86083889  0.42195819  0.62247148    -0.43800
loop_ 
_geom_bond_atom_site_label_1 
_geom_bond_atom_site_label_2 
_geom_bond_distance 
_geom_bond_site_symmetry_2 
_ccdc_geom_bond_type 
C1            C2   1.551       .  S
C1            C7   1.536       .  S
C1            C5   1.546       .  S
C1         C2329   1.553       .  S
C2            H9   1.078       .  S
C2            C3   1.371       .  D
C3            C4   1.548       .  S
C3           C15   1.493       .  S
C4            C8   1.548       .  S
C4            C6   1.549       .  S
C4           H10   1.111       .  S
C5           H11   1.081       .  S
C5            C6   1.360       .  D
C6           C42   1.494       .  S
C7           H12   1.087       .  S
C7            C8   1.363       .  D
C8         C2341   1.501       .  S
C13          C14   1.541       .  S
C13          C19   1.545       .  S
C13          C17   1.543       .  S
C13        C2317   1.555       .  S
C14          H21   1.086       .  S
C14          C15   1.370       .  D
C15          C16   1.550       .  S
C16          C20   1.553       .  S
C16          C18   1.547       .  S
C16          H22   1.111       .  S
C17          H23   1.078       .  S
C17          C18   1.362       .  D
C18          C30   1.492       .  S
C19          H24   1.083       .  S
C19          C20   1.365       .  D
C20        C2305   1.510       .  S
C25          C26   1.556       .  S
C25          C31   1.534       .  S
C25          C29   1.541   1_455  S
C25        C2281   1.549       .  S
C26          H33   1.083       .  S
C26          C27   1.377       .  D
C27          C28   1.552       .  S
C27          C39   1.505       .  S
C28          C32   1.549       .  S
C28          C30   1.554   1_455  S
C28          H34   1.111   1_455  S
C29          H35   1.087       .  S
C29          C30   1.360       .  D
C31          H36   1.087       .  S
C31          C32   1.360       .  D
C32        C2293   1.501       .  S
C37          C38   1.555       .  S
C37          C43   1.537       .  S
C37          C41   1.545   1_455  S
C37        C2272   1.562       .  S
C38          H45   1.084       .  S
C38          C39   1.375       .  D
C39          C40   1.548       .  S
C40          C44   1.563       .  S
C40          C42   1.555   1_455  S
C40          H46   1.105   1_455  S
C41          H47   1.086       .  S
C41          C42   1.361       .  D
C43          H48   1.085       .  S
C43          C44   1.372       .  D
C44        C2260   1.532       .  S
C49          C50   1.551       .  S
C49          C55   1.540       .  S
C49          C53   1.545       .  S
C49        C2236   1.549       .  S
C50          H57   1.083       .  S
C50          C51   1.374       .  D
C51          C52   1.549       .  S
C51          C63   1.494       .  S
C52          C56   1.544       .  S
C52          C54   1.550       .  S
C52          H58   1.111       .  S
C53          H59   1.086       .  S
C53          C54   1.362       .  D
C54          C90   1.492   1_556  S
C55          H60   1.086       .  S
C55          C56   1.360       .  D
C56        C2245   1.498       .  S
C61          C62   1.546       .  S
C61          C67   1.541       .  S
C61          C65   1.545       .  S
C61        C2209   1.561       .  S
C62          H69   1.086       .  S
C62          C63   1.372       .  D
C63          C64   1.547       .  S
C64          C68   1.563       .  S
C64          C66   1.554       .  S
C64          H70   1.103       .  S
C65          H71   1.067       .  S
C65          C66   1.358       .  D
C66          C78   1.499   1_556  S
C67          H72   1.084       .  S
C67          C68   1.375       .  D
C68        C2221   1.537       .  S
C73          C74   1.551       .  S
C73          C79   1.540       .  S
C73          C77   1.547       .  S
C73        C2197   1.552       .  S
C74          H81   1.083       .  S
C74          C75   1.370       .  D
C75          C76   1.553       .  S
C75          C87   1.497       .  S
C76          C80   1.552       .  S
C76          C78   1.554       .  S
C76          H82   1.111       .  S
C77          H83   1.084       .  S
C77          C78   1.365       .  D
C79          H84   1.087       .  S
C79          C80   1.359       .  D
C80        C2185   1.507       .  S
C85          C86   1.546       .  S
C85          C91   1.539       .  S
C85          C89   1.547       .  S
C85        C2173   1.558       .  S
C86          H93   1.086       .  S
C86          C87   1.374       .  D
C87          C88   1.555       .  S
C88          C92   1.556       .  S
C88          C90   1.548       .  S
C88          H94   1.111       .  S
C89          H95   1.080       .  S
C89          C90   1.361       .  D
C91          H96   1.087       .  S
C91          C92   1.365       .  D
C92        C2161   1.518       .  S
C97          C98   1.543       .  S
C97         C103   1.536       .  S
C97         C101   1.552       .  S
C97        C2149   1.557       .  S
C98         H105   1.086       .  S
C98          C99   1.370       .  D
C99         C100   1.554       .  S
C99         C111   1.495       .  S
C100        C104   1.552       .  S
C100        C102   1.544       .  S
C100        H106   1.111       .  S
C101        H107   1.077       .  S
C101        C102   1.359       .  D
C102        C138   1.493       .  S
C103        H108   1.086       .  S
C103        C104   1.367       .  D
C104       C2137   1.507       .  S
C109        C110   1.539       .  S
C109        C115   1.549       .  S
C109        C113   1.552       .  S
C109       C2113   1.550       .  S
C110        H117   1.086       .  S
C110        C111   1.367       .  D
C111        C112   1.551       .  S
C112        C116   1.554       .  S
C112        C114   1.550       .  S
C112        H118   1.111       .  S
C113        H119   1.084       .  S
C113        C114   1.361       .  D
C114        C126   1.491       .  S
C115        H120   1.085       .  S
C115        C116   1.365       .  D
C116       C2125   1.514       .  S
C121        C122   1.543       .  S
C121        C127   1.541       .  S
C121        C125   1.548   1_545  S
C121       C2101   1.554       .  S
C122        H129   1.086       .  S
C122        C123   1.374       .  D
C123        C124   1.550       .  S
C123        C135   1.497       .  S
C124        C128   1.551       .  S
C124        C126   1.548   1_545  S
C124        H130   1.111   1_545  S
C125        H131   1.079       .  S
C125        C126   1.355       .  D
C127        H132   1.086       .  S
C127        C128   1.364       .  D
C128       C2089   1.497       .  S
C133        C134   1.557       .  S
C133        C139   1.549       .  S
C133        C137   1.542   1_545  S
C133       C2068   1.565       .  S
C134        H141   1.065       .  S
C134        C135   1.372       .  D
C135        C136   1.542       .  S
C136        C140   1.558       .  S
C136        C138   1.550   1_545  S
C136        H142   1.101   1_545  S
C137        H143   1.085       .  S
C137        C138   1.363       .  D
C139        H144   1.082       .  S
C139        C140   1.378       .  D
C140       C2080   1.541       .  S
C145        C146   1.544       .  S
C145        C151   1.548   1_554  S
C145        C149   1.541       .  S
C145       C2053   1.555       .  S
C146        H153   1.082       .  S
C146        C147   1.366   1_554  D
C147        C148   1.549       .  S
C147        C159   1.494       .  S
C148        C152   1.553       .  S
C148        C150   1.546       .  S
C148        H154   1.111       .  S
C149        H155   1.086       .  S
C149        C150   1.367   1_554  D
C150        C174   1.490       .  S
C151        H156   1.081       .  S
C151        C152   1.367       .  D
C152       C2041   1.514       .  S
C157        C158   1.541       .  S
C157        C163   1.541       .  S
C157        C161   1.552       .  S
C157       C2017   1.556       .  S
C158        H165   1.082       .  S
C158        C159   1.363       .  D
C159        C160   1.549   1_556  S
C160        C164   1.555       .  S
C160        C162   1.552   1_554  S
C160        H166   1.111       .  S
C161        H167   1.082       .  S
C161        C162   1.371       .  D
C162        C186   1.497       .  S
C163        H168   1.086       .  S
C163        C164   1.367   1_556  D
C164       C2029   1.517       .  S
C169        C170   1.544       .  S
C169        C175   1.546       .  S
C169        C173   1.542   1_545  S
C169       C1993   1.556       .  S
C170        H177   1.083       .  S
C170        C171   1.367       .  D
C171        C172   1.553   1_556  S
C171        C183   1.497       .  S
C172        C176   1.551       .  S
C172        C174   1.547   1_544  S
C172        H178   1.111   1_545  S
C173        H179   1.086       .  S
C173        C174   1.367       .  D
C175        H180   1.080       .  S
C175        C176   1.366   1_556  D
C176       C2005   1.513       .  S
C181        C182   1.548       .  S
C181        C187   1.547   1_554  S
C181        C185   1.542   1_545  S
C181       C1984   1.559       .  S
C182        H189   1.085       .  S
C182        C183   1.369   1_554  D
C183        C184   1.553       .  S
C184        C188   1.553       .  S
C184        C186   1.551   1_545  S
C184        H190   1.111   1_545  S
C185        H191   1.086       .  S
C185        C186   1.369   1_554  D
C187        H192   1.082       .  S
C187        C188   1.362       .  D
C188       C1969   1.513       .  S
C193        C194   1.551       .  S
C193        C199   1.544       .  S
C193        C197   1.555       .  S
C193       C1945   1.570       .  S
C194        H201   1.086       .  S
C194        C195   1.379       .  D
C195        C196   1.544       .  S
C195        C219   1.496       .  S
C196        C200   1.542       .  S
C196        C198   1.543       .  S
C196        H202   1.111       .  S
C197        H203   1.079       .  S
C197        C198   1.360       .  D
C198        C210   1.495       .  S
C199        H204   1.086       .  S
C199        C200   1.366       .  D
C200       C1957   1.495   1_565  S
C205        C206   1.559       .  S
C205        C211   1.544       .  S
C205        C209   1.548       .  S
C205       C1933   1.570   1_565  S
C206        H213   1.077   1_565  S
C206        C207   1.376       .  D
C207        C208   1.547       .  S
C207        C231   1.504       .  S
C208        C212   1.542       .  S
C208        C210   1.549       .  S
C208        H214   1.111       .  S
C209        H215   1.084   1_565  S
C209        C210   1.366       .  D
C211        H216   1.086       .  S
C211        C212   1.363       .  D
C212       C1921   1.499       .  S
C217        C218   1.554   1_455  S
C217        C223   1.537       .  S
C217        C221   1.548       .  S
C217       C1909   1.558   1_565  S
C218        H225   1.085   1_565  S
C218        C219   1.378       .  D
C219        C220   1.541   1_655  S
C220        C224   1.548       .  S
C220        C222   1.546       .  S
C220        H226   1.109   1_455  S
C221        H227   1.083   1_565  S
C221        C222   1.357       .  D
C222        C234   1.485       .  S
C223        H228   1.084       .  S
C223        C224   1.367       .  D
C224       C1900   1.511       .  S
C229        C230   1.557   1_455  S
C229        C235   1.537       .  S
C229        C233   1.547       .  S
C229       C1873   1.563       .  S
C230        H237   1.085       .  S
C230        C231   1.380       .  D
C231        C232   1.545   1_655  S
C232        C236   1.545       .  S
C232        C234   1.542       .  S
C232        H238   1.111   1_455  S
C233        H239   1.072       .  S
C233        C234   1.358       .  D
C235        H240   1.087       .  S
C235        C236   1.363       .  D
C236       C1885   1.498   1_565  S
C241        C242   1.540       .  S
C241        C247   1.530       .  S
C241        C245   1.530       .  S
C241       C1861   1.568   1_655  S
C242        H249   1.072   1_655  S
C242        C243   1.378       .  D
C243        C244   1.562       .  S
C243        C282   1.523   1_556  S
C244        C248   1.570       .  S
C244        C246   1.568       .  S
C244        H250   1.106       .  S
C245        H251   1.080   1_655  S
C245        C246   1.374       .  D
C246        C255   1.534       .  S
C247        H252   1.086       .  S
C247        C248   1.371       .  D
C248       C1849   1.515       .  S
C253        C254   1.538       .  S
C253        C259   1.540       .  S
C253        C257   1.542       .  S
C253       C1837   1.564   1_655  S
C254        H261   1.080   1_655  S
C254        C255   1.381       .  D
C255        C256   1.559       .  S
C256        C260   1.564       .  S
C256        C258   1.555       .  S
C256        H262   1.106       .  S
C257        H263   1.086       .  S
C257        C258   1.368       .  D
C258        C270   1.497   1_556  S
C259        H264   1.079       .  S
C259        C260   1.360       .  D
C260       C1825   1.507       .  S
C265        C266   1.550       .  S
C265        C271   1.541       .  S
C265        C269   1.543       .  S
C265       C1804   1.553       .  S
C266        H273   1.077       .  S
C266        C267   1.359       .  D
C267        C268   1.545       .  S
C267        C279   1.487       .  S
C268        C272   1.553       .  S
C268        C270   1.554       .  S
C268        H274   1.111       .  S
C269        H275   1.086       .  S
C269        C270   1.371       .  D
C271        H276   1.086       .  S
C271        C272   1.362       .  D
C272       C1816   1.503   1_655  S
C277        C278   1.545       .  S
C277        C283   1.540       .  S
C277        C281   1.533       .  S
C277       C1792   1.556   1_655  S
C278        H285   1.083   1_655  S
C278        C279   1.365       .  D
C279        C280   1.545       .  S
C280        C284   1.557       .  S
C280        C282   1.557       .  S
C280        H286   1.108       .  S
C281        H287   1.081   1_655  S
C281        C282   1.380       .  D
C283        H288   1.081       .  S
C283        C284   1.360       .  D
C284       C1780   1.503       .  S
In289       O291   2.269       .  S
In289       O292   2.245       .  S
In289       O300   2.214       .  S
In289       O294   2.298       .  S
In289       O296   2.308       .  S
In289       O297   2.210       .  S
In289       O298   2.242       .  S
In289       O301   2.241       .  S
C290        O296   1.270       .  A
C290        O298   1.260       .  A
C290       C1813   1.509       .  S
O291        C299   1.268       .  A
O292        C299   1.259       .  A
C293        O300   1.256       .  A
C293        O294   1.270       .  A
C293       C1753   1.499       .  S
C295        O297   1.260       .  A
C295        O301   1.261       .  A
C295       C1765   1.466       .  S
C299       C1744   1.499       .  S
In302       O304   2.247       .  S
In302       O305   2.193       .  S
In302       O313   2.204       .  S
In302       O307   2.285       .  S
In302       O309   2.235       .  S
In302       O310   2.222       .  S
In302       O311   2.279       .  S
In302       O314   2.258       .  S
C303        O309   1.258       .  A
C303        O311   1.269       .  A
C303       C1789   1.483       .  S
O304        C312   1.262       .  A
O305        C312   1.261       .  A
C306        O313   1.254       .  A
C306        O307   1.268       .  A
C306       C1729   1.484       .  S
C308        O310   1.258       .  A
C308        O314   1.266       .  A
C308       C1720   1.485       .  S
C312       C1768   1.467       .  S
In315       O317   2.236       .  S
In315       O318   2.191       .  S
In315       O326   2.232       .  S
In315       O320   2.291       .  S
In315       O322   2.306       .  S
In315       O323   2.228       .  S
In315       O324   2.232       .  S
In315       O327   2.274       .  S
C316        O322   1.271       .  A
C316        O324   1.259       .  A
C316       C2248   1.505       .  S
O317        C325   1.261       .  A
O318        C325   1.261       .  A
C319        O326   1.256       .  A
C319        O320   1.270       .  A
C319       C1681   1.498       .  S
C321        O323   1.259       .  A
C321        O327   1.268       .  A
C321       C1693   1.490       .  S
C325       C1705   1.460       .  S
In328       O330   2.267       .  S
In328       O331   2.217       .  S
In328       O339   2.192       .  S
In328       O333   2.281       .  S
In328       O335   2.301       .  S
In328       O336   2.193       .  S
In328       O337   2.228       .  S
In328       O340   2.236       .  S
C329        O335   1.269       .  A
C329        O337   1.258       .  A
C329       C2176   1.502       .  S
O330        C338   1.268       .  A
O331        C338   1.257       .  A
C332        O339   1.255       .  A
C332        O333   1.270       .  A
C332       C1669   1.482       .  S
C334        O336   1.261       .  A
C334        O340   1.262       .  A
C334       C1708   1.463       .  S
C338       C1732   1.491       .  S
In341       O343   2.276       .  S
In341       O344   2.202       .  S
In341       O352   2.221       .  S
In341       O346   2.290       .  S
In341       O348   2.296       .  S
In341       O349   2.187       .  S
In341       O350   2.265       .  S
In341       O353   2.237       .  S
C342        O348   1.266       .  A
C342        O350   1.258       .  A
C342       C1864   1.510       .  S
O343        C351   1.270       .  A
O344        C351   1.256       .  A
C345        O352   1.254       .  A
C345        O346   1.272       .  A
C345       C1696   1.496       .  S
C347        O349   1.258       .  A
C347        O353   1.261       .  A
C347       C1657   1.460       .  S
C351       C1645   1.487       .  S
In354       O356   2.233       .  S
In354       O357   2.195       .  S
In354       O365   2.214       .  S
In354       O359   2.302       .  S
In354       O361   2.282       .  S
In354       O362   2.236       .  S
In354       O363   2.286       .  S
In354       O366   2.279       .  S
C355        O361   1.257       .  A
C355        O363   1.262       .  A
C355       C1840   1.507       .  S
O356        C364   1.258       .  A
O357        C364   1.260       .  A
C358        O365   1.253       .  A
C358        O359   1.268       .  A
C358       C1633   1.486       .  S
C360        O362   1.261       .  A
C360        O366   1.272       .  A
C360       C1624   1.502       .  S
C364       C1660   1.453       .  S
In367       O369   2.260       .  S
In367       O370   2.238       .  S
In367       O378   2.272       .  S
In367       O372   2.222       .  S
In367       O374   2.305       .  S
In367       O375   2.188       .  S
In367       O376   2.224       .  S
In367       O379   2.244       .  S
C368        O374   1.267       .  A
C368        O376   1.260       .  A
C368       C2233   1.500       .  S
O369        C377   1.269       .  A
O370        C377   1.259       .  A
C371        O378   1.267       .  A
C371        O372   1.255       .  A
C371       C1597   1.482       .  S
C373        O375   1.258       .  A
C373        O379   1.259       .  A
C373       C1609   1.455       .  S
C377       C1636   1.496       .  S
In380       O382   2.222       .  S
In380       O383   2.198       .  S
In380       O391   2.232       .  S
In380       O385   2.292       .  S
In380       O387   2.313       .  S
In380       O388   2.253       .  S
In380       O389   2.264       .  S
In380       O392   2.260       .  S
C381        O387   1.271       .  A
C381        O389   1.263       .  A
C381       C2164   1.516       .  S
O382        C390   1.260       .  A
O383        C390   1.264       .  A
C384        O391   1.257       .  A
C384        O385   1.272       .  A
C384       C1585   1.498       .  S
C386        O388   1.262       .  A
C386        O392   1.269       .  A
C386       C1756   1.499       .  S
C390       C1612   1.454       .  S
In393       O395   2.300       .  S
In393       O396   2.235       .  S
In393       O404   2.222       .  S
In393       O398   2.298       .  S
In393       O400   2.272       .  S
In393       O401   2.238       .  S
In393       O402   2.295       .  S
In393       O405   2.192       .  S
C394        O400   1.258       .  A
C394        O402   1.267       .  A
C394       C2008   1.507       .  S
O395        C403   1.268       .  A
O396        C403   1.254       .  A
C397        O404   1.254       .  A
C397        O398   1.267       .  A
C397       C1561   1.491       .  S
C399        O401   1.262       .  A
C399        O405   1.261       .  A
C399       C1576   1.462       .  S
C403       C1588   1.495       .  S
In406       O408   2.183       .  S
In406       O409   2.229       .  S
In406       O417   2.286       .  S
In406       O411   2.210       .  S
In406       O413   2.281       .  S
In406       O414   2.217       .  S
In406       O415   2.264       .  S
In406       O418   2.283       .  S
C407        O413   1.267       .  A
C407        O415   1.259       .  A
C407       C1981   1.506       .  S
O408        C416   1.260       .  A
O409        C416   1.261       .  A
C410        O417   1.269       .  A
C410        O411   1.254       .  A
C410       C1549   1.484       .  S
C412        O414   1.254       .  A
C412        O418   1.269       .  A
C412       C1537   1.490       .  S
C416       C1573   1.454       .  S
In419       O421   2.234       .  S
In419       O422   2.194       .  S
In419       O430   2.239       .  S
In419       O424   2.317       .  S
In419       O426   2.340       .  S
In419       O427   2.240       .  S
In419       O428   2.257       .  S
In419       O431   2.279       .  S
C420        O426   1.272       .  A
C420        O428   1.256       .  A
C420       C2128   1.522       .  S
O421        C429   1.262       .  A
O422        C429   1.261       .  A
C423        O430   1.255       .  A
C423        O424   1.270       .  A
C423       C1501   1.508       .  S
C425        O427   1.258       .  A
C425        O431   1.269       .  A
C425       C1513   1.499       .  S
C429       C1525   1.466       .  S
In432       O434   2.274       .  S
In432       O435   2.225       .  S
In432       O443   2.237       .  S
In432       O437   2.270       .  S
In432       O439   2.232       .  S
In432       O440   2.194       .  S
In432       O441   2.297       .  S
In432       O444   2.243       .  S
C433        O439   1.257       .  A
C433        O441   1.268       .  A
C433       C2104   1.497       .  S
O434        C442   1.268       .  A
O435        C442   1.257       .  A
C436        O443   1.256       .  A
C436        O437   1.264       .  A
C436       C1489   1.492       .  S
C438        O440   1.260       .  A
C438        O444   1.261       .  A
C438       C1528   1.465   1_545  S
C442       C1552   1.490       .  S
In445       O447   2.271       .  S
In445       O448   2.241       .  S
In445       O456   2.227       .  S
In445       O450   2.289       .  S
In445       O452   2.321       .  S
In445       O453   2.206       .  S
In445       O454   2.261       .  S
In445       O457   2.236       .  S
C446        O452   1.270       .  A
C446        O454   1.257       .  A
C446       C2032   1.514       .  S
O447        C455   1.266       .  A
O448        C455   1.261       .  A
C449        O456   1.256       .  A
C449        O450   1.270       .  A
C449       C1516   1.496       .  S
C451        O453   1.262       .  A
C451        O457   1.262       .  A
C451       C1477   1.466       .  S
C455       C1468   1.495       .  S
In458       O460   2.228       .  S
In458       O461   2.199       .  S
In458       O469   2.216       .  S
In458       O463   2.279       .  S
In458       O465   2.300       .  S
In458       O466   2.230       .  S
In458       O467   2.243       .  S
In458       O470   2.248       .  S
C459        O465   1.267       .  A
C459        O467   1.254       .  A
C459       C2056   1.496       .  S
O460        C468   1.262       .  A
O461        C468   1.263       .  A
C462        O469   1.253       .  A
C462        O463   1.267       .  A
C462       C1453   1.486       .  S
C464        O466   1.261       .  A
C464        O470   1.266       .  A
C464       C1672   1.485       .  S
C468       C1480   1.465       .  S
In471       O473   2.271       .  S
In471       O474   2.213       .  S
In471       O482   2.225       .  S
In471       O476   2.264       .  S
In471       O478   2.307       .  S
In471       O479   2.190       .  S
In471       O480   2.213       .  S
In471       O483   2.240       .  S
C472        O478   1.269       .  A
C472        O480   1.255       .  A
C472       C2116   1.492       .  S
O473        C481   1.269       .  A
O474        C481   1.257       .  A
C475        O482   1.256       .  A
C475        O476   1.264       .  A
C475       C1429   1.489       .  S
C477        O479   1.257       .  A
C477        O483   1.261       .  A
C477       C1441   1.465       .  S
C481       C1456   1.491       .  S
In484       O486   2.231       .  S
In484       O487   2.195       .  S
In484       O495   2.237       .  S
In484       O489   2.274       .  S
In484       O491   2.299       .  S
In484       O492   2.244       .  S
In484       O493   2.250       .  S
In484       O496   2.258       .  S
C485        O491   1.269       .  A
C485        O493   1.259       .  A
C485       C2092   1.509       .  S
O486        C494   1.260       .  A
O487        C494   1.263       .  A
C488        O495   1.257       .  A
C488        O489   1.268       .  A
C488       C1417   1.494       .  S
C490        O492   1.260       .  A
C490        O496   1.268       .  A
C490       C1564   1.490       .  S
C494       C1444   1.463   1_545  S
In497       O499   2.282       .  S
In497       O500   2.226       .  S
In497       O508   2.226       .  S
In497       O502   2.281       .  S
In497       O504   2.323       .  S
In497       O505   2.207       .  S
In497       O506   2.221       .  S
In497       O509   2.225       .  S
C498        O504   1.269       .  A
C498        O506   1.257       .  A
C498       C1912   1.508       .  S
O499        C507   1.269       .  A
O500        C507   1.258       .  A
C501        O508   1.257       .  A
C501        O502   1.270       .  A
C501       C1393   1.494       .  S
C503        O505   1.261       .  A
C503        O509   1.260       .  A
C503       C1405   1.462       .  S
C507       C1420   1.498       .  S
In510       O512   2.235       .  S
In510       O513   2.209       .  S
In510       O521   2.253       .  S
In510       O515   2.288       .  S
In510       O517   2.309       .  S
In510       O518   2.218       .  S
In510       O519   2.234       .  S
In510       O522   2.271       .  S
C511        O517   1.270       .  A
C511        O519   1.257       .  A
C511       C1888   1.503       .  S
O512        C520   1.258       .  A
O513        C520   1.258       .  A
C514        O521   1.256       .  A
C514        O515   1.261       .  A
C514       C1384   1.497       .  S
C516        O518   1.260       .  A
C516        O522   1.272       .  A
C516       C1369   1.494       .  S
C520       C1408   1.470       .  S
In523       O525   2.241       .  S
In523       O526   2.220       .  S
In523       O534   2.229       .  S
In523       O528   2.275       .  S
In523       O530   2.291       .  S
In523       O531   2.230       .  S
In523       O532   2.256       .  S
In523       O535   2.283       .  S
C524        O530   1.267       .  A
C524        O532   1.261       .  A
C524       C2344   1.502       .  S
O525        C533   1.258       .  A
O526        C533   1.261       .  A
C527        O534   1.257       .  A
C527        O528   1.266       .  A
C527       C1333   1.490       .  S
C529        O531   1.261       .  A
C529        O535   1.269       .  A
C529       C1345   1.500       .  S
C533       C1357   1.469       .  S
In536       O538   2.262       .  S
In536       O539   2.242       .  S
In536       O547   2.234       .  S
In536       O541   2.289       .  S
In536       O543   2.231       .  S
In536       O544   2.179       .  S
In536       O545   2.333       .  S
In536       O548   2.257       .  S
C537        O543   1.257       .  A
C537        O545   1.271       .  A
C537       C2269   1.515       .  S
O538        C546   1.269       .  A
O539        C546   1.259       .  A
C540        O547   1.256       .  A
C540        O541   1.270       .  A
C540       C1621   1.495       .  S
C542        O544   1.259       .  A
C542        O548   1.262       .  A
C542       C1360   1.463   1_455  S
C546       C1381   1.496       .  S
In549       O551   2.288       .  S
In549       O552   2.222       .  S
In549       O560   2.235       .  S
In549       O554   2.290       .  S
In549       O556   2.314       .  S
In549       O557   2.204       .  S
In549       O558   2.259       .  S
In549       O561   2.235       .  S
C550        O556   1.271       .  A
C550        O558   1.260       .  A
C550       C1936   1.517       .  S
O551        C559   1.270       .  A
O552        C559   1.260       .  A
C553        O560   1.257       .  A
C553        O554   1.271       .  A
C553       C1348   1.499       .  S
C555        O557   1.261       .  A
C555        O561   1.260       .  A
C555       C1321   1.458       .  S
C559       C1312   1.500       .  S
In562       O564   2.234       .  S
In562       O565   2.197       .  S
In562       O573   2.281       .  S
In562       O567   2.209       .  S
In562       O569   2.303       .  S
In562       O570   2.222       .  S
In562       O571   2.239       .  S
In562       O574   2.273       .  S
C563        O569   1.270       .  A
C563        O571   1.258       .  A
C563       C1960   1.504       .  S
O564        C572   1.261       .  A
O565        C572   1.261       .  A
C566        O573   1.270       .  A
C566        O567   1.256       .  A
C566       C1300   1.487       .  S
C568        O570   1.259       .  A
C568        O574   1.268       .  A
C568       C1492   1.493       .  S
C572       C1324   1.457       .  S
In575       O577   2.273       .  S
In575       O578   2.218       .  S
In575       O586   2.213       .  S
In575       O580   2.255       .  S
In575       O582   2.284       .  S
In575       O583   2.209       .  S
In575       O584   2.226       .  S
In575       O587   2.246       .  S
C576        O582   1.266       .  A
C576        O584   1.258       .  A
C576       C2332   1.492       .  S
O577        C585   1.267       .  A
O578        C585   1.257       .  A
C579        O586   1.255       .  A
C579        O580   1.264       .  A
C579       C1276   1.473       .  S
C581        O583   1.259       .  A
C581        O587   1.260       .  A
C581       C1285   1.468       .  S
C585       C1297   1.492       .  S
In588       O590   2.227       .  S
In588       O591   2.216       .  S
In588       O599   2.292       .  S
In588       O593   2.232       .  S
In588       O595   2.320       .  S
In588       O596   2.236       .  S
In588       O597   2.243       .  S
In588       O600   2.286       .  S
C589        O595   1.270       .  A
C589        O597   1.256       .  A
C589       C2257   1.504       .  S
O590        C598   1.260       .  A
O591        C598   1.263       .  A
C592        O599   1.267       .  A
C592        O593   1.255       .  A
C592       C1741   1.498       .  S
C594        O596   1.259       .  A
C594        O600   1.269       .  A
C594       C1396   1.502       .  S
C598       C1288   1.465   1_455  S
In601       O603   2.290       .  S
In601       O604   2.230       .  S
In601       O612   2.235       .  S
In601       O606   2.299       .  S
In601       O608   2.242       .  S
In601       O609   2.200       .  S
In601       O610   2.324       .  S
In601       O613   2.232       .  S
C602        O608   1.255       .  A
C602        O610   1.271       .  A
C602       C1972   1.511       .  S
O603        C611   1.270       .  A
O604        C611   1.257       .  A
C605        O612   1.255       .  A
C605        O606   1.268       .  A
C605       C1240   1.502       .  S
C607        O609   1.261       .  A
C607        O613   1.261       .  A
C607       C1261   1.466       .  S
C611       C1252   1.503       .  S
In614       O616   2.229       .  S
In614       O617   2.196       .  S
In614       O625   2.219       .  S
In614       O619   2.269       .  S
In614       O621   2.286       .  S
In614       O622   2.230       .  S
In614       O623   2.247       .  S
In614       O626   2.257       .  S
C615        O621   1.266       .  A
C615        O623   1.255       .  A
C615       C1996   1.490       .  S
O616        C624   1.262       .  A
O617        C624   1.261       .  A
C618        O625   1.255       .  A
C618        O619   1.265       .  A
C618       C1228   1.486       .  S
C620        O622   1.259       .  A
C620        O626   1.266       .  A
C620       C1600   1.490       .  S
C624       C1264   1.463       .  S
In627       O629   2.273       .  S
In627       O630   2.212       .  S
In627       O638   2.284       .  S
In627       O632   2.227       .  S
In627       O634   2.320       .  S
In627       O635   2.196       .  S
In627       O636   2.216       .  S
In627       O639   2.238       .  S
C628        O634   1.270       .  A
C628        O636   1.254       .  A
C628       C2152   1.502       .  S
O629        C637   1.268       .  A
O630        C637   1.256       .  A
C631        O638   1.268       .  A
C631        O632   1.255       .  A
C631       C1189   1.492       .  S
C633        O635   1.260       .  A
C633        O639   1.263       .  A
C633       C1213   1.469       .  S
C637       C1201   1.487       .  S
In640       O642   2.226       .  S
In640       O643   2.214       .  S
In640       O651   2.250       .  S
In640       O645   2.293       .  S
In640       O647   2.324       .  S
In640       O648   2.238       .  S
In640       O649   2.273       .  S
In640       O652   2.282       .  S
C641        O647   1.269       .  A
C641        O649   1.257       .  A
C641       C2077   1.513       .  S
O642        C650   1.261       .  A
O643        C650   1.261       .  A
C644        O651   1.256       .  A
C644        O645   1.267       .  A
C644       C1309   1.503       .  S
C646        O648   1.259       .  A
C646        O652   1.269       .  A
C646       C1237   1.502       .  S
C650       C1216   1.464   1_545  S
In653       O655   2.246       .  S
In653       O656   2.186       .  S
In653       O664   2.209       .  S
In653       O658   2.290       .  S
In653       O660   2.303       .  S
In653       O661   2.226       .  S
In653       O662   2.244       .  S
In653       O665   2.277       .  S
C654        O660   1.268       .  A
C654        O662   1.259       .  A
C654       C2020   1.503       .  S
O655        C663   1.262       .  A
O656        C663   1.259       .  A
C657        O664   1.255       .  A
C657        O658   1.269       .  A
C657       C1204   1.492       .  S
C659        O661   1.256       .  A
C659        O665   1.269       .  A
C659       C1165   1.495       .  S
C663       C1177   1.464       .  S
In666       O668   2.273       .  S
In666       O669   2.241       .  S
In666       O677   2.282       .  S
In666       O671   2.229       .  S
In666       O673   2.309       .  S
In666       O674   2.203       .  S
In666       O675   2.240       .  S
In666       O678   2.248       .  S
C667        O673   1.270       .  A
C667        O675   1.257       .  A
C667       C2044   1.506       .  S
O668        C676   1.269       .  A
O669        C676   1.260       .  A
C670        O677   1.266       .  A
C670        O671   1.254       .  A
C670       C1153   1.493       .  S
C672        O674   1.261       .  A
C672        O678   1.260       .  A
C672       C1180   1.470       .  S
C676       C1684   1.501       .  S
In679       O681   2.235       .  S
In679       O682   2.195       .  S
In679       O690   2.241       .  S
In679       O684   2.280       .  S
In679       O686   2.308       .  S
In679       O687   2.215       .  S
In679       O688   2.246       .  S
In679       O691   2.271       .  S
C680        O686   1.268       .  A
C680        O688   1.257       .  A
C680       C2140   1.498       .  S
O681        C689   1.258       .  A
O682        C689   1.257       .  A
C683        O690   1.256       .  A
C683        O684   1.267       .  A
C683       C1132   1.496       .  S
C685        O687   1.257       .  A
C685        O691   1.271       .  A
C685       C1156   1.492       .  S
C689       C1141   1.458       .  S
In692       O694   2.263       .  S
In692       O695   2.210       .  S
In692       O703   2.205       .  S
In692       O697   2.298       .  S
In692       O699   2.305       .  S
In692       O700   2.182       .  S
In692       O701   2.257       .  S
In692       O704   2.229       .  S
C693        O699   1.268       .  A
C693        O701   1.259       .  A
C693       C2065   1.511       .  S
O694        C702   1.269       .  A
O695        C702   1.258       .  A
C696        O703   1.253       .  A
C696        O697   1.273       .  A
C696       C1372   1.495       .  S
C698        O700   1.259       .  A
C698        O704   1.262       .  A
C698       C1144   1.454   1_545  S
C702       C1225   1.487       .  S
In705       O707   2.284       .  S
In705       O708   2.218       .  S
In705       O716   2.290       .  S
In705       O710   2.241       .  S
In705       O712   2.329       .  S
In705       O713   2.207       .  S
In705       O714   2.235       .  S
In705       O717   2.241       .  S
C706        O712   1.270       .  A
C706        O714   1.256       .  A
C706       C1777   1.513       .  S
O707        C715   1.270       .  A
O708        C715   1.258       .  A
C709        O716   1.267       .  A
C709        O710   1.255       .  A
C709       C1096   1.501       .  S
C711        O713   1.259       .  A
C711        O717   1.261       .  A
C711       C1117   1.466       .  S
C715       C1108   1.497       .  S
In718       O720   2.245       .  S
In718       O721   2.181       .  S
In718       O729   2.199       .  S
In718       O723   2.269       .  S
In718       O725   2.297       .  S
In718       O726   2.211       .  S
In718       O727   2.213       .  S
In718       O730   2.245       .  S
C719        O725   1.269       .  A
C719        O727   1.258       .  A
C719       C1801   1.491       .  S
O720        C728   1.263       .  A
O721        C728   1.261       .  A
C722        O729   1.255       .  A
C722        O723   1.272       .  A
C722       C1081   1.486       .  S
C724        O726   1.258       .  A
C724        O730   1.267       .  A
C724       C1273   1.479       .  S
C728       C1120   1.462       .  S
In731       O733   2.224       .  S
In731       O734   2.208       .  S
In731       O742   2.245       .  S
In731       O736   2.312       .  S
In731       O738   2.317       .  S
In731       O739   2.209       .  S
In731       O740   2.279       .  S
In731       O743   2.297       .  S
C732        O738   1.266       .  A
C732        O740   1.258       .  A
C732       C2224   1.516       .  S
O733        C741   1.262       .  A
O734        C741   1.258       .  A
C735        O742   1.254       .  A
C735        O736   1.269       .  A
C735       C1249   1.504       .  S
C737        O739   1.256       .  A
C737        O743   1.271       .  A
C737       C1057   1.494       .  S
C741       C1069   1.465       .  S
In744       O746   2.271       .  S
In744       O747   2.196       .  S
In744       O755   2.202       .  S
In744       O749   2.287       .  S
In744       O751   2.299       .  S
In744       O752   2.199       .  S
In744       O753   2.237       .  S
In744       O756   2.213       .  S
C745        O751   1.264       .  A
C745        O753   1.258       .  A
C745       C2200   1.498       .  S
O746        C754   1.269       .  A
O747        C754   1.255       .  A
C748        O755   1.254       .  A
C748        O749   1.269       .  A
C748       C1540   1.485       .  S
C750        O752   1.261       .  A
C750        O756   1.263       .  A
C750       C1072   1.467       .  S
C754       C1084   1.479       .  S
In757       O759   2.285       .  S
In757       O760   2.213       .  S
In757       O768   2.289       .  S
In757       O762   2.206       .  S
In757       O764   2.307       .  S
In757       O765   2.202       .  S
In757       O766   2.217       .  S
In757       O769   2.245       .  S
C758        O764   1.270       .  A
C758        O766   1.257       .  A
C758       C2212   1.501       .  S
O759        C767   1.270       .  A
O760        C767   1.256       .  A
C761        O768   1.269       .  A
C761        O762   1.254       .  A
C761       C1168   1.494       .  S
C763        O765   1.259       .  A
C763        O769   1.261       .  A
C763       C1045   1.466       .  S
C767       C1033   1.494       .  S
In770       O772   2.238       .  S
In770       O773   2.212       .  S
In770       O781   2.249       .  S
In770       O775   2.278       .  S
In770       O777   2.320       .  S
In770       O778   2.230       .  S
In770       O779   2.253       .  S
In770       O782   2.292       .  S
C771        O777   1.269       .  A
C771        O779   1.258       .  A
C771       C2188   1.512       .  S
O772        C780   1.258       .  A
O773        C780   1.259       .  A
C774        O781   1.256       .  A
C774        O775   1.265       .  A
C774       C1465   1.490       .  S
C776        O778   1.258       .  A
C776        O782   1.271       .  A
C776       C1093   1.503       .  S
C780       C1048   1.464       .  S
In783       O785   2.220       .  S
In783       O786   2.199       .  S
In783       O794   2.223       .  S
In783       O788   2.276       .  S
In783       O790   2.311       .  S
In783       O791   2.232       .  S
In783       O792   2.245       .  S
In783       O795   2.270       .  S
C784        O790   1.269       .  A
C784        O792   1.257       .  A
C784       C1852   1.505       .  S
O785        C793   1.261       .  A
O786        C793   1.262       .  A
C787        O794   1.255       .  A
C787        O788   1.268       .  A
C787       C1036   1.487       .  S
C789        O791   1.259       .  A
C789        O795   1.267       .  A
C789       C1009   1.493       .  S
C793       C1021   1.455       .  S
In796       O798   2.267       .  S
In796       O799   2.226       .  S
In796       O807   2.221       .  S
In796       O801   2.288       .  S
In796       O803   2.303       .  S
In796       O804   2.191       .  S
In796       O805   2.259       .  S
In796       O808   2.233       .  S
C797        O803   1.269       .  A
C797        O805   1.261       .  A
C797       C1828   1.513       .  S
O798        C806   1.268       .  A
O799        C806   1.260       .  A
C800        O807   1.256       .  A
C800        O801   1.272       .  A
C800       C1060   1.492       .  S
C802        O804   1.262       .  A
C802        O808   1.261       .  A
C802       C1024   1.457       .  S
C806       C1336   1.492       .  S
In809       O811   2.284       .  S
In809       O812   2.234       .  S
In809       O820   2.204       .  S
In809       O814   2.289       .  S
In809       O816   2.306       .  S
In809       O817   2.214       .  S
In809       O818   2.232       .  S
In809       O821   2.233       .  S
C810        O816   1.270       .  A
C810        O818   1.258       .  A
C810       C1876   1.507       .  S
O811        C819   1.268       .  A
O812        C819   1.259       .  A
C813        O820   1.256       .  A
C813        O814   1.269       .  A
C813        C985   1.489       .  S
C815        O817   1.263       .  A
C815        O821   1.261       .  A
C815        C997   1.467       .  S
C819       C1129   1.498       .  S
In822       O824   2.238       .  S
In822       O825   2.186       .  S
In822       O833   2.198       .  S
In822       O827   2.286       .  S
In822       O829   2.287       .  S
In822       O830   2.228       .  S
In822       O831   2.226       .  S
In822       O834   2.253       .  S
C823        O829   1.269       .  A
C823        O831   1.256       .  A
C823       C1897   1.490       .  S
O824        C832   1.264       .  A
O825        C832   1.263       .  A
C826        O833   1.254       .  A
C826        O827   1.270       .  A
C826        C973   1.488       .  S
C828        O830   1.260       .  A
C828        O834   1.265       .  A
C828       C1432   1.489       .  S
C832       C1000   1.462       .  S
In835       O837   2.269       .  S
In835       O838   2.235       .  S
In835       O846   2.217       .  S
In835       O840   2.282       .  S
In835       O842   2.289       .  S
In835       O843   2.198       .  S
In835       O844   2.243       .  S
In835       O847   2.243       .  S
C836        O842   1.268       .  A
C836        O844   1.257       .  A
C836       C2320   1.491       .  S
O837        C845   1.267       .  A
O838        C845   1.259       .  A
C839        O846   1.256       .  A
C839        O840   1.266       .  A
C839       C1012   1.491       .  S
C841        O843   1.261       .  A
C841        O847   1.262       .  A
C841        C961   1.466       .  S
C845        C949   1.495       .  S
In848       O850   2.247       .  S
In848       O851   2.204       .  S
In848       O859   2.228       .  S
In848       O853   2.259       .  S
In848       O855   2.289       .  S
In848       O856   2.236       .  S
In848       O857   2.234       .  S
In848       O860   2.248       .  S
C849        O855   1.267       .  A
C849        O857   1.257       .  A
C849       C2296   1.498       .  S
O850        C858   1.258       .  A
O851        C858   1.260       .  A
C852        O859   1.255       .  A
C852        O853   1.264       .  A
C852       C1648   1.481       .  S
C854        O856   1.261       .  A
C854        O860   1.269       .  A
C854        C988   1.492       .  S
C858        C964   1.468   1_455  S
In861       O863   2.244       .  S
In861       O864   2.197       .  S
In861       O872   2.295       .  S
In861       O866   2.227       .  S
In861       O868   2.309       .  S
In861       O869   2.220       .  S
In861       O870   2.239       .  S
In861       O873   2.281       .  S
C862        O868   1.270       .  A
C862        O870   1.257       .  A
C862       C1924   1.508       .  S
O863        C871   1.262       .  A
O864        C871   1.258       .  A
C865        O872   1.267       .  A
C865        O866   1.255       .  A
C865        C952   1.493       .  S
C867        O869   1.256       .  A
C867        O873   1.269       .  A
C867       C1192   1.494       .  S
C871        C937   1.466       .  S
In874       O876   2.284       .  S
In874       O877   2.245       .  S
In874       O885   2.229       .  S
In874       O879   2.287       .  S
In874       O881   2.228       .  S
In874       O882   2.211       .  S
In874       O883   2.330       .  S
In874       O886   2.237       .  S
C875        O881   1.256       .  A
C875        O883   1.271       .  A
C875       C1948   1.513       .  S
O876        C884   1.269       .  A
O877        C884   1.259       .  A
C878        O885   1.256       .  A
C878        O879   1.267       .  A
C878        C925   1.492       .  S
C880        O882   1.263       .  A
C880        O886   1.260       .  A
C880        C940   1.467       .  S
C884       C1504   1.505       .  S
In887       O889   2.231       .  S
In887       O890   2.193       .  S
In887       O898   2.224       .  S
In887       O892   2.284       .  S
In887       O894   2.311       .  S
In887       O895   2.224       .  S
In887       O896   2.251       .  S
In887       O899   2.268       .  S
C888        O894   1.270       .  A
C888        O896   1.260       .  A
C888       C2308   1.510       .  S
O889        C897   1.260       .  A
O890        C897   1.261       .  A
C891        O898   1.257       .  A
C891        O892   1.272       .  A
C891       C1105   1.495       .  S
C893        O895   1.259       .  A
C893        O899   1.270       .  A
C893        C928   1.496       .  S
C897        C913   1.455       .  S
In900       O902   2.263       .  S
In900       O903   2.215       .  S
In900       O911   2.189       .  S
In900       O905   2.273       .  S
In900       O907   2.296       .  S
In900       O908   2.196       .  S
In900       O909   2.221       .  S
In900       O912   2.240       .  S
C901        O907   1.268       .  A
C901        O909   1.259       .  A
C901       C2284   1.500       .  S
O902        C910   1.269       .  A
O903        C910   1.259       .  A
C904        O911   1.256       .  A
C904        O905   1.272       .  A
C904       C1717   1.484       .  S
C906        O908   1.260       .  A
C906        O912   1.260       .  A
C906        C916   1.457   1_455  S
C910        C976   1.491       .  S
C913        C914   1.400       .  A
C913        C918   1.409       .  A
C914        C915   1.390       .  A
C914        H919   1.085       .  S
C915        C916   1.407       .  A
C915        C922   1.445       .  S
C916        C917   1.401       .  A
C917        C918   1.396       .  A
C917        H920   1.085       .  S
C918        C921   1.445       .  S
C921        N923   1.157       .  T
C922        N924   1.157   1_655  T
C925        C926   1.403       .  A
C925        C930   1.417       .  A
C926        C927   1.406       .  A
C926        H931   1.085       .  S
C927        C928   1.421       .  A
C927        C934   1.445       .  S
C928        C929   1.404       .  A
C929        C930   1.404       .  A
C929        H932   1.085       .  S
C930        C933   1.444       .  S
C933        N935   1.157       .  T
C934        N936   1.158       .  T
C937        C938   1.401       .  A
C937        C942   1.409       .  A
C938        C939   1.397       .  A
C938        H943   1.085       .  S
C939        C940   1.413       .  A
C939        C946   1.444       .  S
C940        C941   1.401       .  A
C941        C942   1.392       .  A
C941        H944   1.085       .  S
C942        C945   1.445       .  S
C945        N947   1.157       .  T
C946        N948   1.157       .  T
C949        C950   1.404       .  A
C949        C954   1.420       .  A
C950        C951   1.403       .  A
C950        H955   1.085       .  S
C951        C952   1.416       .  A
C951        C958   1.444       .  S
C952        C953   1.404       .  A
C953        C954   1.408       .  A
C953        H956   1.085       .  S
C954        C957   1.445       .  S
C957        N959   1.158       .  T
C958        N960   1.157       .  T
C961        C962   1.403       .  A
C961        C966   1.408       .  A
C962        C963   1.399       .  A
C962        H967   1.085       .  S
C963        C964   1.413       .  A
C963        C970   1.444       .  S
C964        C965   1.401       .  A
C965        C966   1.390       .  A
C965        H968   1.085       .  S
C966        C969   1.445       .  S
C969        N971   1.157       .  T
C970        N972   1.157   1_655  T
C973        C974   1.402       .  A
C973        C978   1.419       .  A
C974        C975   1.404       .  A
C974        H979   1.085       .  S
C975        C976   1.421       .  A
C975        C982   1.445       .  S
C976        C977   1.402       .  A
C977        C978   1.401       .  A
C977        H980   1.085       .  S
C978        C981   1.445       .  S
C981        N983   1.157       .  T
C982        N984   1.158       .  T
C985        C986   1.404       .  A
C985        C990   1.415       .  A
C986        C987   1.408       .  A
C986        H991   1.085       .  S
C987        C988   1.421       .  A
C987        C994   1.445       .  S
C988        C989   1.402       .  A
C989        C990   1.398       .  A
C989        H992   1.085       .  S
C990        C993   1.444       .  S
C993        N995   1.157       .  T
C994        N996   1.158       .  T
C997        C998   1.402       .  A
C997       C1002   1.414       .  A
C998        C999   1.392       .  A
C998       H1003   1.085       .  S
C999       C1000   1.407       .  A
C999       C1006   1.445       .  S
C1000      C1001   1.400       .  A
C1001      C1002   1.397       .  A
C1001      H1004   1.085       .  S
C1002      C1005   1.444       .  S
C1005      N1007   1.157       .  T
C1006      N1008   1.157       .  T
C1009      C1010   1.411       .  A
C1009      C1014   1.411       .  A
C1010      C1011   1.406       .  A
C1010      H1015   1.085       .  S
C1011      C1012   1.412       .  A
C1011      C1018   1.444       .  S
C1012      C1013   1.409       .  A
C1013      C1014   1.401       .  A
C1013      H1016   1.084       .  S
C1014      C1017   1.443       .  S
C1017      N1019   1.157       .  T
C1018      N1020   1.157       .  T
C1021      C1022   1.400       .  A
C1021      C1026   1.410       .  A
C1022      C1023   1.391       .  A
C1022      H1027   1.085       .  S
C1023      C1024   1.407       .  A
C1023      C1030   1.445       .  S
C1024      C1025   1.400       .  A
C1025      C1026   1.395       .  A
C1025      H1028   1.085       .  S
C1026      C1029   1.445       .  S
C1029      N1031   1.157       .  T
C1030      N1032   1.157       .  T
C1033      C1034   1.405       .  A
C1033      C1038   1.421       .  A
C1034      C1035   1.406       .  A
C1034      H1039   1.085       .  S
C1035      C1036   1.416       .  A
C1035      C1042   1.444       .  S
C1036      C1037   1.401       .  A
C1037      C1038   1.402       .  A
C1037      H1040   1.085       .  S
C1038      C1041   1.445       .  S
C1041      N1043   1.157       .  T
C1042      N1044   1.157       .  T
C1045      C1046   1.403       .  A
C1045      C1050   1.410       .  A
C1046      C1047   1.397   1_556  A
C1046      H1051   1.085       .  S
C1047      C1048   1.411       .  A
C1047      C1054   1.445       .  S
C1048      C1049   1.401       .  A
C1049      C1050   1.392   1_554  A
C1049      H1052   1.085       .  S
C1050      C1053   1.445       .  S
C1053      N1055   1.157       .  T
C1054      N1056   1.157       .  T
C1057      C1058   1.403       .  A
C1057      C1062   1.421       .  A
C1058      C1059   1.407       .  A
C1058      H1063   1.084       .  S
C1059      C1060   1.420       .  A
C1059      C1066   1.444       .  S
C1060      C1061   1.399       .  A
C1061      C1062   1.403       .  A
C1061      H1064   1.085       .  S
C1062      C1065   1.444       .  S
C1065      N1067   1.157       .  T
C1066      N1068   1.157       .  T
C1069      C1070   1.402       .  A
C1069      C1074   1.412       .  A
C1070      C1071   1.392   1_556  A
C1070      H1075   1.085       .  S
C1071      C1072   1.411       .  A
C1071      C1078   1.444       .  S
C1072      C1073   1.403       .  A
C1073      C1074   1.390   1_554  A
C1073      H1076   1.085       .  S
C1074      C1077   1.445       .  S
C1077      N1079   1.157       .  T
C1078      N1080   1.157       .  T
C1081      C1082   1.401       .  A
C1081      C1086   1.423       .  A
C1082      C1083   1.399       .  A
C1082      H1087   1.085       .  S
C1083      C1084   1.417       .  A
C1083      C1090   1.445       .  S
C1084      C1085   1.397       .  A
C1085      C1086   1.399       .  A
C1085      H1088   1.085       .  S
C1086      C1089   1.445       .  S
C1089      N1091   1.157       .  T
C1090      N1092   1.157       .  T
C1093      C1094   1.405       .  A
C1093      C1098   1.423       .  A
C1094      C1095   1.408       .  A
C1094      H1099   1.084       .  S
C1095      C1096   1.422       .  A
C1095      C1102   1.444       .  S
C1096      C1097   1.403       .  A
C1097      C1098   1.406       .  A
C1097      H1100   1.085       .  S
C1098      C1101   1.444       .  S
C1101      N1103   1.157       .  T
C1102      N1104   1.157       .  T
C1105      C1106   1.412       .  A
C1105      C1110   1.411       .  A
C1106      C1107   1.407       .  A
C1106      H1111   1.085       .  S
C1107      C1108   1.413       .  A
C1107      C1114   1.444       .  S
C1108      C1109   1.411       .  A
C1109      C1110   1.403       .  A
C1109      H1112   1.085       .  S
C1110      C1113   1.443       .  S
C1113      N1115   1.157       .  T
C1114      N1116   1.157       .  T
C1117      C1118   1.404       .  A
C1117      C1122   1.411       .  A
C1118      C1119   1.398       .  A
C1118      H1123   1.085       .  S
C1119      C1120   1.409       .  A
C1119      C1126   1.444       .  S
C1120      C1121   1.400       .  A
C1121      C1122   1.390       .  A
C1121      H1124   1.086       .  S
C1122      C1125   1.445       .  S
C1125      N1127   1.157       .  T
C1126      N1128   1.157       .  T
C1129      C1130   1.409       .  A
C1129      C1134   1.414       .  A
C1130      C1131   1.404       .  A
C1130      H1135   1.084       .  S
C1131      C1132   1.413       .  A
C1131      C1138   1.443       .  S
C1132      C1133   1.410       .  A
C1133      C1134   1.408       .  A
C1133      H1136   1.085       .  S
C1134      C1137   1.444       .  S
C1137      N1139   1.157       .  T
C1138      N1140   1.157       .  T
C1141      C1142   1.401       .  A
C1141      C1146   1.410       .  A
C1142      C1143   1.389       .  A
C1142      H1147   1.085       .  S
C1143      C1144   1.408       .  A
C1143      C1150   1.446       .  S
C1144      C1145   1.399       .  A
C1145      C1146   1.394       .  A
C1145      H1148   1.085       .  S
C1146      C1149   1.444       .  S
C1149      N1151   1.157       .  T
C1150      N1152   1.157       .  T
C1153      C1154   1.403       .  A
C1153      C1158   1.419       .  A
C1154      C1155   1.404       .  A
C1154      H1159   1.085       .  S
C1155      C1156   1.421       .  A
C1155      C1162   1.445       .  S
C1156      C1157   1.402       .  A
C1157      C1158   1.403       .  A
C1157      H1160   1.085       .  S
C1158      C1161   1.444       .  S
C1161      N1163   1.157       .  T
C1162      N1164   1.158       .  T
C1165      C1166   1.401       .  A
C1165      C1170   1.422       .  A
C1166      C1167   1.402       .  A
C1166      H1171   1.085       .  S
C1167      C1168   1.421       .  A
C1167      C1174   1.445       .  S
C1168      C1169   1.403       .  A
C1169      C1170   1.406       .  A
C1169      H1172   1.085       .  S
C1170      C1173   1.445       .  S
C1173      N1175   1.158       .  T
C1174      N1176   1.157       .  T
C1177      C1178   1.401       .  A
C1177      C1182   1.409       .  A
C1178      C1179   1.398       .  A
C1178      H1183   1.085       .  S
C1179      C1180   1.413       .  A
C1179      C1186   1.443       .  S
C1180      C1181   1.402       .  A
C1181      C1182   1.390       .  A
C1181      H1184   1.085       .  S
C1182      C1185   1.446       .  S
C1185      N1187   1.157       .  T
C1186      N1188   1.157       .  T
C1189      C1190   1.402       .  A
C1189      C1194   1.419       .  A
C1190      C1191   1.404       .  A
C1190      H1195   1.085       .  S
C1191      C1192   1.420       .  A
C1191      C1198   1.445       .  S
C1192      C1193   1.403       .  A
C1193      C1194   1.404       .  A
C1193      H1196   1.085       .  S
C1194      C1197   1.444       .  S
C1197      N1199   1.157       .  T
C1198      N1200   1.157       .  T
C1201      C1202   1.410       .  A
C1201      C1206   1.409       .  A
C1202      C1203   1.403       .  A
C1202      H1207   1.085       .  S
C1203      C1204   1.411       .  A
C1203      C1210   1.443       .  S
C1204      C1205   1.412       .  A
C1205      C1206   1.401       .  A
C1205      H1208   1.084       .  S
C1206      C1209   1.444       .  S
C1209      N1211   1.157       .  T
C1210      N1212   1.157       .  T
C1213      C1214   1.405       .  A
C1213      C1218   1.413       .  A
C1214      C1215   1.392       .  A
C1214      H1219   1.085       .  S
C1215      C1216   1.409       .  A
C1215      C1222   1.445       .  S
C1216      C1217   1.401       .  A
C1217      C1218   1.394       .  A
C1217      H1220   1.085       .  S
C1218      C1221   1.444       .  S
C1221      N1223   1.157       .  T
C1222      N1224   1.157       .  T
C1225      C1226   1.410       .  A
C1225      C1230   1.409       .  A
C1226      C1227   1.402       .  A
C1226      H1231   1.084       .  S
C1227      C1228   1.410       .  A
C1227      C1234   1.444       .  S
C1228      C1229   1.410       .  A
C1229      C1230   1.400       .  A
C1229      H1232   1.084       .  S
C1230      C1233   1.444       .  S
C1233      N1235   1.157       .  T
C1234      N1236   1.157       .  T
C1237      C1238   1.404       .  A
C1237      C1242   1.422       .  A
C1238      C1239   1.407       .  A
C1238      H1243   1.085       .  S
C1239      C1240   1.421       .  A
C1239      C1246   1.444       .  S
C1240      C1241   1.404       .  A
C1241      C1242   1.408       .  A
C1241      H1244   1.084       .  S
C1242      C1245   1.444       .  S
C1245      N1247   1.158       .  T
C1246      N1248   1.157       .  T
C1249      C1250   1.404       .  A
C1249      C1254   1.422       .  A
C1250      C1251   1.409       .  A
C1250      H1255   1.085       .  S
C1251      C1252   1.423       .  A
C1251      C1258   1.445       .  S
C1252      C1253   1.403       .  A
C1253      C1254   1.408       .  A
C1253      H1256   1.085       .  S
C1254      C1257   1.444       .  S
C1257      N1259   1.157       .  T
C1258      N1260   1.158       .  T
C1261      C1262   1.403       .  A
C1261      C1266   1.412       .  A
C1262      C1263   1.391       .  A
C1262      H1267   1.085       .  S
C1263      C1264   1.409       .  A
C1263      C1270   1.446       .  S
C1264      C1265   1.402       .  A
C1265      C1266   1.395       .  A
C1265      H1268   1.085       .  S
C1266      C1269   1.444       .  S
C1269      N1271   1.157       .  T
C1270      N1272   1.157       .  T
C1273      C1274   1.403       .  A
C1273      C1278   1.418       .  A
C1274      C1275   1.398       .  A
C1274      H1279   1.085       .  S
C1275      C1276   1.412       .  A
C1275      C1282   1.444       .  S
C1276      C1277   1.400       .  A
C1277      C1278   1.398       .  A
C1277      H1280   1.085       .  S
C1278      C1281   1.445       .  S
C1281      N1283   1.157       .  T
C1282      N1284   1.157       .  T
C1285      C1286   1.403       .  A
C1285      C1290   1.410       .  A
C1286      C1287   1.397       .  A
C1286      H1291   1.085       .  S
C1287      C1288   1.412       .  A
C1287      C1294   1.445       .  S
C1288      C1289   1.400       .  A
C1289      C1290   1.393       .  A
C1289      H1292   1.085       .  S
C1290      C1293   1.444       .  S
C1293      N1295   1.157       .  T
C1294      N1296   1.157   1_655  T
C1297      C1298   1.404       .  A
C1297      C1302   1.421       .  A
C1298      C1299   1.403       .  A
C1298      H1303   1.085       .  S
C1299      C1300   1.417       .  A
C1299      C1306   1.445       .  S
C1300      C1301   1.401       .  A
C1301      C1302   1.403       .  A
C1301      H1304   1.085       .  S
C1302      C1305   1.445       .  S
C1305      N1307   1.157       .  T
C1306      N1308   1.157       .  T
C1309      C1310   1.413       .  A
C1309      C1314   1.414       .  A
C1310      C1311   1.410       .  A
C1310      H1315   1.084       .  S
C1311      C1312   1.414       .  A
C1311      C1318   1.444       .  S
C1312      C1313   1.409       .  A
C1313      C1314   1.404       .  A
C1313      H1316   1.085       .  S
C1314      C1317   1.443       .  S
C1317      N1319   1.157       .  T
C1318      N1320   1.158       .  T
C1321      C1322   1.401       .  A
C1321      C1326   1.407       .  A
C1322      C1323   1.395       .  A
C1322      H1327   1.085       .  S
C1323      C1324   1.409       .  A
C1323      C1330   1.445       .  S
C1324      C1325   1.401       .  A
C1325      C1326   1.392       .  A
C1325      H1328   1.085       .  S
C1326      C1329   1.445       .  S
C1329      N1331   1.157       .  T
C1330      N1332   1.157       .  T
C1333      C1334   1.408       .  A
C1333      C1338   1.413       .  A
C1334      C1335   1.404       .  A
C1334      H1339   1.085       .  S
C1335      C1336   1.413       .  A
C1335      C1342   1.444       .  S
C1336      C1337   1.408       .  A
C1337      C1338   1.403       .  A
C1337      H1340   1.085       .  S
C1338      C1341   1.444       .  S
C1341      N1343   1.157       .  T
C1342      N1344   1.157       .  T
C1345      C1346   1.410       .  A
C1345      C1350   1.415       .  A
C1346      C1347   1.405       .  A
C1346      H1351   1.084       .  S
C1347      C1348   1.412       .  A
C1347      C1354   1.442       .  S
C1348      C1349   1.412       .  A
C1349      C1350   1.409       .  A
C1349      H1352   1.084       .  S
C1350      C1353   1.444       .  S
C1353      N1355   1.158       .  T
C1354      N1356   1.157       .  T
C1357      C1358   1.401       .  A
C1357      C1362   1.413       .  A
C1358      C1359   1.391       .  A
C1358      H1363   1.085       .  S
C1359      C1360   1.408       .  A
C1359      C1366   1.446       .  S
C1360      C1361   1.401       .  A
C1361      C1362   1.400       .  A
C1361      H1364   1.085       .  S
C1362      C1365   1.444       .  S
C1365      N1367   1.157       .  T
C1366      N1368   1.157   1_655  T
C1369      C1370   1.401       .  A
C1369      C1374   1.421       .  A
C1370      C1371   1.403       .  A
C1370      H1375   1.085       .  S
C1371      C1372   1.423       .  A
C1371      C1378   1.445       .  S
C1372      C1373   1.402       .  A
C1373      C1374   1.406       .  A
C1373      H1376   1.084       .  S
C1374      C1377   1.444       .  S
C1377      N1379   1.157       .  T
C1378      N1380   1.157       .  T
C1381      C1382   1.411       .  A
C1381      C1386   1.412       .  A
C1382      C1383   1.409       .  A
C1382      H1387   1.085       .  S
C1383      C1384   1.414       .  A
C1383      C1390   1.444       .  S
C1384      C1385   1.409       .  A
C1385      C1386   1.404       .  A
C1385      H1388   1.084       .  S
C1386      C1389   1.444       .  S
C1389      N1391   1.157       .  T
C1390      N1392   1.157       .  T
C1393      C1394   1.402       .  A
C1393      C1398   1.418       .  A
C1394      C1395   1.406       .  A
C1394      H1399   1.085       .  S
C1395      C1396   1.422       .  A
C1395      C1402   1.444       .  S
C1396      C1397   1.406       .  A
C1397      C1398   1.407       .  A
C1397      H1400   1.084       .  S
C1398      C1401   1.445       .  S
C1401      N1403   1.157       .  T
C1402      N1404   1.157       .  T
C1405      C1406   1.402       .  A
C1405      C1410   1.408       .  A
C1406      C1407   1.395       .  A
C1406      H1411   1.085       .  S
C1407      C1408   1.414       .  A
C1407      C1414   1.444       .  S
C1408      C1409   1.404       .  A
C1409      C1410   1.391       .  A
C1409      H1412   1.085       .  S
C1410      C1413   1.445       .  S
C1413      N1415   1.157       .  T
C1414      N1416   1.157       .  T
C1417      C1418   1.409       .  A
C1417      C1422   1.413       .  A
C1418      C1419   1.407       .  A
C1418      H1423   1.084       .  S
C1419      C1420   1.413       .  A
C1419      C1426   1.443       .  S
C1420      C1421   1.410       .  A
C1421      C1422   1.404       .  A
C1421      H1424   1.084       .  S
C1422      C1425   1.444       .  S
C1425      N1427   1.157       .  T
C1426      N1428   1.157       .  T
C1429      C1430   1.409       .  A
C1429      C1434   1.412       .  A
C1430      C1431   1.401       .  A
C1430      H1435   1.085       .  S
C1431      C1432   1.413       .  A
C1431      C1438   1.444       .  S
C1432      C1433   1.408       .  A
C1433      C1434   1.402       .  A
C1433      H1436   1.084       .  S
C1434      C1437   1.443       .  S
C1437      N1439   1.157       .  T
C1438      N1440   1.157       .  T
C1441      C1442   1.403       .  A
C1441      C1446   1.411       .  A
C1442      C1443   1.397       .  A
C1442      H1447   1.084       .  S
C1443      C1444   1.411       .  A
C1443      C1450   1.445       .  S
C1444      C1445   1.400       .  A
C1445      C1446   1.388       .  A
C1445      H1448   1.086       .  S
C1446      C1449   1.445       .  S
C1449      N1451   1.157       .  T
C1450      N1452   1.157   1_565  T
C1453      C1454   1.401       .  A
C1453      C1458   1.417       .  A
C1454      C1455   1.403       .  A
C1454      H1459   1.085       .  S
C1455      C1456   1.421       .  A
C1455      C1462   1.445       .  S
C1456      C1457   1.403       .  A
C1457      C1458   1.402       .  A
C1457      H1460   1.084       .  S
C1458      C1461   1.445       .  S
C1461      N1463   1.157       .  T
C1462      N1464   1.158       .  T
C1465      C1466   1.407       .  A
C1465      C1470   1.413       .  A
C1466      C1467   1.408       .  A
C1466      H1471   1.084       .  S
C1467      C1468   1.416       .  A
C1467      C1474   1.444       .  S
C1468      C1469   1.407       .  A
C1469      C1470   1.404       .  A
C1469      H1472   1.084       .  S
C1470      C1473   1.444       .  S
C1473      N1475   1.157       .  T
C1474      N1476   1.157       .  T
C1477      C1478   1.403       .  A
C1477      C1482   1.409       .  A
C1478      C1479   1.397       .  A
C1478      H1483   1.085       .  S
C1479      C1480   1.412       .  A
C1479      C1486   1.444       .  S
C1480      C1481   1.401       .  A
C1481      C1482   1.391       .  A
C1481      H1484   1.085       .  S
C1482      C1485   1.445       .  S
C1485      N1487   1.157       .  T
C1486      N1488   1.157       .  T
C1489      C1490   1.409       .  A
C1489      C1494   1.414       .  A
C1490      C1491   1.405       .  A
C1490      H1495   1.085       .  S
C1491      C1492   1.413       .  A
C1491      C1498   1.443       .  S
C1492      C1493   1.408       .  A
C1493      C1494   1.403       .  A
C1493      H1496   1.085       .  S
C1494      C1497   1.444       .  S
C1497      N1499   1.157       .  T
C1498      N1500   1.157       .  T
C1501      C1502   1.407       .  A
C1501      C1506   1.422       .  A
C1502      C1503   1.413       .  A
C1502      H1507   1.084       .  S
C1503      C1504   1.422       .  A
C1503      C1510   1.444       .  S
C1504      C1505   1.403       .  A
C1505      C1506   1.407       .  A
C1505      H1508   1.085       .  S
C1506      C1509   1.444       .  S
C1509      N1511   1.157       .  T
C1510      N1512   1.158       .  T
C1513      C1514   1.403       .  A
C1513      C1518   1.421       .  A
C1514      C1515   1.404       .  A
C1514      H1519   1.085       .  S
C1515      C1516   1.420       .  A
C1515      C1522   1.444       .  S
C1516      C1517   1.404       .  A
C1517      C1518   1.407       .  A
C1517      H1520   1.085       .  S
C1518      C1521   1.444       .  S
C1521      N1523   1.157       .  T
C1522      N1524   1.157       .  T
C1525      C1526   1.402       .  A
C1525      C1530   1.411       .  A
C1526      C1527   1.390       .  A
C1526      H1531   1.086       .  S
C1527      C1528   1.409       .  A
C1527      C1534   1.445       .  S
C1528      C1529   1.403       .  A
C1529      C1530   1.398       .  A
C1529      H1532   1.085       .  S
C1530      C1533   1.444       .  S
C1533      N1535   1.157       .  T
C1534      N1536   1.157       .  T
C1537      C1538   1.413       .  A
C1537      C1542   1.410       .  A
C1538      C1539   1.403       .  A
C1538      H1543   1.084       .  S
C1539      C1540   1.407       .  A
C1539      C1546   1.443       .  S
C1540      C1541   1.410       .  A
C1541      C1542   1.400       .  A
C1541      H1544   1.085       .  S
C1542      C1545   1.443       .  S
C1545      N1547   1.157       .  T
C1546      N1548   1.157       .  T
C1549      C1550   1.408       .  A
C1549      C1554   1.406       .  A
C1550      C1551   1.402       .  A
C1550      H1555   1.085       .  S
C1551      C1552   1.411       .  A
C1551      C1558   1.444       .  S
C1552      C1553   1.412       .  A
C1553      C1554   1.405       .  A
C1553      H1556   1.085       .  S
C1554      C1557   1.443       .  S
C1557      N1559   1.157       .  T
C1558      N1560   1.157       .  T
C1561      C1562   1.408       .  A
C1561      C1566   1.411       .  A
C1562      C1563   1.401       .  A
C1562      H1567   1.085       .  S
C1563      C1564   1.409       .  A
C1563      C1570   1.444       .  S
C1564      C1565   1.411       .  A
C1565      C1566   1.409       .  A
C1565      H1568   1.084       .  S
C1566      C1569   1.443       .  S
C1569      N1571   1.157       .  T
C1570      N1572   1.157       .  T
C1573      C1574   1.399       .  A
C1573      C1578   1.408       .  A
C1574      C1575   1.394       .  A
C1574      H1579   1.085       .  S
C1575      C1576   1.411       .  A
C1575      C1582   1.443       .  S
C1576      C1577   1.402       .  A
C1577      C1578   1.388       .  A
C1577      H1580   1.085       .  S
C1578      C1581   1.447       .  S
C1581      N1583   1.158       .  T
C1582      N1584   1.157       .  T
C1585      C1586   1.403       .  A
C1585      C1590   1.421       .  A
C1586      C1587   1.406       .  A
C1586      H1591   1.085       .  S
C1587      C1588   1.420       .  A
C1587      C1594   1.445       .  S
C1588      C1589   1.402       .  A
C1589      C1590   1.409       .  A
C1589      H1592   1.085       .  S
C1590      C1593   1.444       .  S
C1593      N1595   1.157       .  T
C1594      N1596   1.157       .  T
C1597      C1598   1.400       .  A
C1597      C1602   1.415       .  A
C1598      C1599   1.402       .  A
C1598      H1603   1.085       .  S
C1599      C1600   1.420       .  A
C1599      C1606   1.444       .  S
C1600      C1601   1.405       .  A
C1601      C1602   1.402       .  A
C1601      H1604   1.084       .  S
C1602      C1605   1.445       .  S
C1605      N1607   1.157       .  T
C1606      N1608   1.157       .  T
C1609      C1610   1.401       .  A
C1609      C1614   1.410       .  A
C1610      C1611   1.390   1_556  A
C1610      H1615   1.085       .  S
C1611      C1612   1.406       .  A
C1611      C1618   1.445       .  S
C1612      C1613   1.400       .  A
C1613      C1614   1.395   1_554  A
C1613      H1616   1.085       .  S
C1614      C1617   1.445       .  S
C1617      N1619   1.157       .  T
C1618      N1620   1.157       .  T
C1621      C1622   1.401       .  A
C1621      C1626   1.418       .  A
C1622      C1623   1.406       .  A
C1622      H1627   1.085       .  S
C1623      C1624   1.423       .  A
C1623      C1630   1.444       .  S
C1624      C1625   1.406       .  A
C1625      C1626   1.407       .  A
C1625      H1628   1.084       .  S
C1626      C1629   1.444       .  S
C1629      N1631   1.157       .  T
C1630      N1632   1.157       .  T
C1633      C1634   1.405       .  A
C1633      C1638   1.410       .  A
C1634      C1635   1.402       .  A
C1634      H1639   1.085       .  S
C1635      C1636   1.413       .  A
C1635      C1642   1.443       .  S
C1636      C1637   1.413       .  A
C1637      C1638   1.408       .  A
C1637      H1640   1.084       .  S
C1638      C1641   1.444       .  S
C1641      N1643   1.157       .  T
C1642      N1644   1.157       .  T
C1645      C1646   1.404       .  A
C1645      C1650   1.419       .  A
C1646      C1647   1.404       .  A
C1646      H1651   1.084       .  S
C1647      C1648   1.415       .  A
C1647      C1654   1.445       .  S
C1648      C1649   1.400       .  A
C1649      C1650   1.398       .  A
C1649      H1652   1.085       .  S
C1650      C1653   1.445       .  S
C1653      N1655   1.157       .  T
C1654      N1656   1.157       .  T
C1657      C1658   1.403       .  A
C1657      C1662   1.410       .  A
C1658      C1659   1.396       .  A
C1658      H1663   1.085       .  S
C1659      C1660   1.408       .  A
C1659      C1666   1.444       .  S
C1660      C1661   1.398       .  A
C1661      C1662   1.386       .  A
C1661      H1664   1.086       .  S
C1662      C1665   1.446       .  S
C1665      N1667   1.157       .  T
C1666      N1668   1.157       .  T
C1669      C1670   1.407       .  A
C1669      C1674   1.409       .  A
C1670      C1671   1.398       .  A
C1670      H1675   1.085       .  S
C1671      C1672   1.411       .  A
C1671      C1678   1.444       .  S
C1672      C1673   1.410       .  A
C1673      C1674   1.404       .  A
C1673      H1676   1.084       .  S
C1674      C1677   1.444       .  S
C1677      N1679   1.157       .  T
C1678      N1680   1.157       .  T
C1681      C1682   1.404       .  A
C1681      C1686   1.420       .  A
C1682      C1683   1.408       .  A
C1682      H1687   1.085       .  S
C1683      C1684   1.421       .  A
C1683      C1690   1.444       .  S
C1684      C1685   1.405       .  A
C1685      C1686   1.406       .  A
C1685      H1688   1.084       .  S
C1686      C1689   1.444       .  S
C1689      N1691   1.157       .  T
C1690      N1692   1.157       .  T
C1693      C1694   1.400       .  A
C1693      C1698   1.418       .  A
C1694      C1695   1.404       .  A
C1694      H1699   1.085       .  S
C1695      C1696   1.423       .  A
C1695      C1702   1.445       .  S
C1696      C1697   1.403       .  A
C1697      C1698   1.405       .  A
C1697      H1700   1.085       .  S
C1698      C1701   1.444       .  S
C1701      N1703   1.157       .  T
C1702      N1704   1.158       .  T
C1705      C1706   1.401       .  A
C1705      C1710   1.408       .  A
C1706      C1707   1.397   1_556  A
C1706      H1711   1.085       .  S
C1707      C1708   1.412       .  A
C1707      C1714   1.445       .  S
C1708      C1709   1.402       .  A
C1709      C1710   1.390   1_554  A
C1709      H1712   1.085       .  S
C1710      C1713   1.446       .  S
C1713      N1715   1.157       .  T
C1714      N1716   1.157       .  T
C1717      C1718   1.409       .  A
C1717      C1722   1.410       .  A
C1718      C1719   1.398       .  A
C1718      H1723   1.085       .  S
C1719      C1720   1.410       .  A
C1719      C1726   1.444       .  S
C1720      C1721   1.410       .  A
C1721      C1722   1.403       .  A
C1721      H1724   1.085       .  S
C1722      C1725   1.444       .  S
C1725      N1727   1.157       .  T
C1726      N1728   1.157       .  T
C1729      C1730   1.401       .  A
C1729      C1734   1.416       .  A
C1730      C1731   1.403       .  A
C1730      H1735   1.085       .  S
C1731      C1732   1.421       .  A
C1731      C1738   1.444       .  S
C1732      C1733   1.403       .  A
C1733      C1734   1.401       .  A
C1733      H1736   1.085       .  S
C1734      C1737   1.445       .  S
C1737      N1739   1.157       .  T
C1738      N1740   1.157       .  T
C1741      C1742   1.406       .  A
C1741      C1746   1.419       .  A
C1742      C1743   1.409       .  A
C1742      H1747   1.084       .  S
C1743      C1744   1.421       .  A
C1743      C1750   1.444       .  S
C1744      C1745   1.403       .  A
C1745      C1746   1.403       .  A
C1745      H1748   1.085       .  S
C1746      C1749   1.444       .  S
C1749      N1751   1.157       .  T
C1750      N1752   1.158       .  T
C1753      C1754   1.409       .  A
C1753      C1758   1.414       .  A
C1754      C1755   1.401       .  A
C1754      H1759   1.084       .  S
C1755      C1756   1.412       .  A
C1755      C1762   1.443       .  S
C1756      C1757   1.413       .  A
C1757      C1758   1.412       .  A
C1757      H1760   1.084       .  S
C1758      C1761   1.444       .  S
C1761      N1763   1.158       .  T
C1762      N1764   1.157       .  T
C1765      C1766   1.402       .  A
C1765      C1770   1.409       .  A
C1766      C1767   1.398       .  A
C1766      H1771   1.085       .  S
C1767      C1768   1.412       .  A
C1767      C1774   1.443       .  S
C1768      C1769   1.401       .  A
C1769      C1770   1.391       .  A
C1769      H1772   1.085       .  S
C1770      C1773   1.445       .  S
C1773      N1775   1.157       .  T
C1774      N1776   1.157       .  T
C1777      C1778   1.412       .  A
C1777      C1782   1.423       .  A
C1778      C1779   1.419       .  A
C1778      H1783   1.084       .  S
C1779      C1780   1.414       .  A
C1779      C1786   1.443       .  S
C1780      C1781   1.401       .  A
C1781      C1782   1.405       .  A
C1781      H1784   1.085       .  S
C1782      C1785   1.444       .  S
C1785      N1787   1.157       .  T
C1786      N1788   1.157       .  T
C1789      C1790   1.399       .  A
C1789      C1794   1.403       .  A
C1790      C1791   1.404       .  A
C1790      H1795   1.081       .  S
C1791      C1792   1.423       .  A
C1791      C1798   1.445       .  S
C1792      C1793   1.422       .  A
C1793      C1794   1.408       .  A
C1793      H1796   1.076   1_455  S
C1794      C1797   1.444       .  S
C1797      N1799   1.157       .  T
C1798      N1800   1.157       .  T
C1801      C1802   1.403       .  A
C1801      C1806   1.412       .  A
C1802      C1803   1.413       .  A
C1802      H1807   1.085       .  S
C1803      C1804   1.426       .  A
C1803      C1810   1.444       .  S
C1804      C1805   1.412       .  A
C1805      C1806   1.398       .  A
C1805      H1808   1.075       .  S
C1806      C1809   1.447       .  S
C1809      N1811   1.157       .  T
C1810      N1812   1.157       .  T
C1813      C1814   1.409       .  A
C1813      C1818   1.419       .  A
C1814      C1815   1.405       .  A
C1814      H1819   1.084       .  S
C1815      C1816   1.411       .  A
C1815      C1822   1.444   1_455  S
C1816      C1817   1.409       .  A
C1817      C1818   1.417       .  A
C1817      H1820   1.084       .  S
C1818      C1821   1.443       .  S
C1821      N1823   1.157       .  T
C1822      N1824   1.157       .  T
C1825      C1826   1.407       .  A
C1825      C1830   1.415       .  A
C1826      C1827   1.418       .  A
C1826      H1831   1.085       .  S
C1827      C1828   1.420       .  A
C1827      C1834   1.442       .  S
C1828      C1829   1.410       .  A
C1829      C1830   1.408       .  A
C1829      H1832   1.084       .  S
C1830      C1833   1.445       .  S
C1833      N1835   1.157       .  T
C1834      N1836   1.157       .  T
C1837      C1838   1.418       .  A
C1837      C1842   1.423       .  A
C1838      C1839   1.408       .  A
C1838      H1843   1.074   1_455  S
C1839      C1840   1.412       .  A
C1839      C1846   1.444       .  S
C1840      C1841   1.410       .  A
C1841      C1842   1.412       .  A
C1841      H1844   1.085       .  S
C1842      C1845   1.445       .  S
C1845      N1847   1.158       .  T
C1846      N1848   1.157       .  T
C1849      C1850   1.415       .  A
C1849      C1854   1.411       .  A
C1850      C1851   1.413       .  A
C1850      H1855   1.085       .  S
C1851      C1852   1.412       .  A
C1851      C1858   1.442       .  S
C1852      C1853   1.409       .  A
C1853      C1854   1.408       .  A
C1853      H1856   1.085       .  S
C1854      C1857   1.435       .  S
C1857      N1859   1.154       .  T
C1858      N1860   1.157       .  T
C1861      C1862   1.420       .  A
C1861      C1866   1.424       .  A
C1862      C1863   1.414       .  A
C1862      H1867   1.076       .  S
C1863      C1864   1.414       .  A
C1863      C1870   1.444       .  S
C1864      C1865   1.408       .  A
C1865      C1866   1.409       .  A
C1865      H1868   1.084       .  S
C1866      C1869   1.445       .  S
C1869      N1871   1.157   1_455  T
C1870      N1872   1.157       .  T
C1873      C1874   1.416       .  A
C1873      C1878   1.423       .  A
C1874      C1875   1.403       .  A
C1874      H1879   1.075       .  S
C1875      C1876   1.417       .  A
C1875      C1882   1.448       .  S
C1876      C1877   1.407       .  A
C1877      C1878   1.416       .  A
C1877      H1880   1.084       .  S
C1878      C1881   1.442       .  S
C1881      N1883   1.157       .  T
C1882      N1884   1.158       .  T
C1885      C1886   1.405       .  A
C1885      C1890   1.412       .  A
C1886      C1887   1.413       .  A
C1886      H1891   1.084       .  S
C1887      C1888   1.417       .  A
C1887      C1894   1.442       .  S
C1888      C1889   1.409       .  A
C1889      C1890   1.404       .  A
C1889      H1892   1.085       .  S
C1890      C1893   1.445   1_545  S
C1893      N1895   1.157       .  T
C1894      N1896   1.157       .  T
C1897      C1898   1.401       .  A
C1897      C1902   1.415       .  A
C1898      C1899   1.407       .  A
C1898      H1903   1.085       .  S
C1899      C1900   1.424       .  A
C1899      C1906   1.443       .  S
C1900      C1901   1.405       .  A
C1901      C1902   1.402       .  A
C1901      H1904   1.077       .  S
C1902      C1905   1.445       .  S
C1905      N1907   1.157       .  T
C1906      N1908   1.157       .  T
C1909      C1910   1.412       .  A
C1909      C1914   1.426       .  A
C1910      C1911   1.398       .  A
C1910      H1915   1.078       .  S
C1911      C1912   1.417       .  A
C1911      C1918   1.447       .  S
C1912      C1913   1.409       .  A
C1913      C1914   1.420       .  A
C1913      H1916   1.085       .  S
C1914      C1917   1.443       .  S
C1917      N1919   1.158   1_455  T
C1918      N1920   1.157       .  T
C1921      C1922   1.402       .  A
C1921      C1926   1.411       .  A
C1922      C1923   1.409       .  A
C1922      H1927   1.085       .  S
C1923      C1924   1.424       .  A
C1923      C1930   1.445       .  S
C1924      C1925   1.409       .  A
C1925      C1926   1.413       .  A
C1925      H1928   1.084       .  S
C1926      C1929   1.442       .  S
C1929      N1931   1.157       .  T
C1930      N1932   1.158       .  T
C1933      C1934   1.416       .  A
C1933      C1938   1.429       .  A
C1934      C1935   1.409       .  A
C1934      H1939   1.085       .  S
C1935      C1936   1.418       .  A
C1935      C1942   1.445       .  S
C1936      C1937   1.407       .  A
C1937      C1938   1.419       .  A
C1937      H1940   1.084       .  S
C1938      C1941   1.439       .  S
C1941      N1943   1.158       .  T
C1942      N1944   1.158       .  T
C1945      C1946   1.414       .  A
C1945      C1950   1.426       .  A
C1946      C1947   1.403       .  A
C1946      H1951   1.075       .  S
C1947      C1948   1.419       .  A
C1947      C1954   1.447       .  S
C1948      C1949   1.408       .  A
C1949      C1950   1.421       .  A
C1949      H1952   1.084       .  S
C1950      C1953   1.442       .  S
C1953      N1955   1.157       .  T
C1954      N1956   1.157       .  T
C1957      C1958   1.399       .  A
C1957      C1962   1.414       .  A
C1958      C1959   1.405       .  A
C1958      H1963   1.084       .  S
C1959      C1960   1.423       .  A
C1959      C1966   1.445       .  S
C1960      C1961   1.408       .  A
C1961      C1962   1.412       .  A
C1961      H1964   1.085       .  S
C1962      C1965   1.443       .  S
C1965      N1967   1.157   1_545  T
C1966      N1968   1.157       .  T
C1969      C1970   1.401       .  A
C1969      C1974   1.421       .  A
C1970      C1971   1.410       .  A
C1970      H1975   1.081       .  S
C1971      C1972   1.425       .  A
C1971      C1978   1.444       .  S
C1972      C1973   1.406       .  A
C1973      C1974   1.413       .  A
C1973      H1976   1.084       .  S
C1974      C1977   1.444       .  S
C1977      N1979   1.157       .  T
C1978      N1980   1.157       .  T
C1981      C1982   1.412       .  A
C1981      C1986   1.412       .  A
C1982      C1983   1.413       .  A
C1982      H1987   1.084       .  S
C1983      C1984   1.420       .  A
C1983      C1990   1.444       .  S
C1984      C1985   1.417       .  A
C1985      C1986   1.406       .  A
C1985      H1988   1.079       .  S
C1986      C1989   1.444       .  S
C1989      N1991   1.157       .  T
C1990      N1992   1.157   1_545  T
C1993      C1994   1.419       .  A
C1993      C1998   1.422       .  A
C1994      C1995   1.405       .  A
C1994      H1999   1.077       .  S
C1995      C1996   1.406       .  A
C1995      C2002   1.445       .  S
C1996      C1997   1.406       .  A
C1997      C1998   1.408       .  A
C1997      H2000   1.085       .  S
C1998      C2001   1.445       .  S
C2001      N2003   1.157   1_545  T
C2002      N2004   1.157       .  T
C2005      C2006   1.405       .  A
C2005      C2010   1.421       .  A
C2006      C2007   1.413       .  A
C2006      H2011   1.083       .  S
C2007      C2008   1.423       .  A
C2007      C2014   1.444       .  S
C2008      C2009   1.404       .  A
C2009      C2010   1.407       .  A
C2009      H2012   1.085       .  S
C2010      C2013   1.444       .  S
C2013      N2015   1.157       .  T
C2014      N2016   1.157       .  T
C2017      C2018   1.416       .  A
C2017      C2022   1.424       .  A
C2018      C2019   1.415       .  A
C2018      H2023   1.079       .  S
C2019      C2020   1.415       .  A
C2019      C2026   1.443       .  S
C2020      C2021   1.404       .  A
C2021      C2022   1.403       .  A
C2021      H2024   1.085       .  S
C2022      C2025   1.446       .  S
C2025      N2027   1.157       .  T
C2026      N2028   1.157       .  T
C2029      C2030   1.403       .  A
C2029      C2034   1.421       .  A
C2030      C2031   1.411       .  A
C2030      H2035   1.080       .  S
C2031      C2032   1.423       .  A
C2031      C2038   1.445       .  S
C2032      C2033   1.407       .  A
C2033      C2034   1.415       .  A
C2033      H2036   1.084       .  S
C2034      C2037   1.443       .  S
C2037      N2039   1.157       .  T
C2038      N2040   1.158       .  T
C2041      C2042   1.403       .  A
C2041      C2046   1.422       .  A
C2042      C2043   1.408       .  A
C2042      H2047   1.079       .  S
C2043      C2044   1.421       .  A
C2043      C2050   1.445       .  S
C2044      C2045   1.405       .  A
C2045      C2046   1.412       .  A
C2045      H2048   1.084       .  S
C2046      C2049   1.444       .  S
C2049      N2051   1.157       .  T
C2050      N2052   1.157       .  T
C2053      C2054   1.419       .  A
C2053      C2058   1.421       .  A
C2054      C2055   1.408       .  A
C2054      H2059   1.078       .  S
C2055      C2056   1.409       .  A
C2055      C2062   1.444       .  S
C2056      C2057   1.406       .  A
C2057      C2058   1.406       .  A
C2057      H2060   1.085       .  S
C2058      C2061   1.445       .  S
C2061      N2063   1.157       .  T
C2062      N2064   1.157       .  T
C2065      C2066   1.407       .  A
C2065      C2070   1.415       .  A
C2066      C2067   1.409       .  A
C2066      H2071   1.075       .  S
C2067      C2068   1.424       .  A
C2067      C2074   1.445       .  S
C2068      C2069   1.421       .  A
C2069      C2070   1.420       .  A
C2069      H2072   1.038       .  S
C2070      C2073   1.443       .  S
C2073      N2075   1.157       .  T
C2074      N2076   1.157       .  T
C2077      C2078   1.408       .  A
C2077      C2082   1.410       .  A
C2078      C2079   1.415       .  A
C2078      H2083   1.085       .  S
C2079      C2080   1.428       .  A
C2079      C2086   1.441   1_545  S
C2080      C2081   1.419       .  A
C2081      C2082   1.414       .  A
C2081      H2084   1.082       .  S
C2082      C2085   1.442       .  S
C2085      N2087   1.157       .  T
C2086      N2088   1.158       .  T
C2089      C2090   1.400       .  A
C2089      C2094   1.413       .  A
C2090      C2091   1.406       .  A
C2090      H2095   1.085   1_545  S
C2091      C2092   1.423       .  A
C2091      C2098   1.443   1_545  S
C2092      C2093   1.410       .  A
C2093      C2094   1.413       .  A
C2093      H2096   1.084       .  S
C2094      C2097   1.443       .  S
C2097      N2099   1.157       .  T
C2098      N2100   1.157       .  T
C2101      C2102   1.412       .  A
C2101      C2106   1.422       .  A
C2102      C2103   1.399       .  A
C2102      H2107   1.078   1_545  S
C2103      C2104   1.415       .  A
C2103      C2110   1.446   1_545  S
C2104      C2105   1.406       .  A
C2105      C2106   1.413       .  A
C2105      H2108   1.084       .  S
C2106      C2109   1.443       .  S
C2109      N2111   1.157       .  T
C2110      N2112   1.157       .  T
C2113      C2114   1.409       .  A
C2113      C2118   1.425       .  A
C2114      C2115   1.399       .  A
C2114      H2119   1.081       .  S
C2115      C2116   1.414       .  A
C2115      C2122   1.445       .  S
C2116      C2117   1.403       .  A
C2117      C2118   1.412       .  A
C2117      H2120   1.084       .  S
C2118      C2121   1.443       .  S
C2121      N2123   1.157       .  T
C2122      N2124   1.157       .  T
C2125      C2126   1.403       .  A
C2125      C2130   1.416       .  A
C2126      C2127   1.413       .  A
C2126      H2131   1.084       .  S
C2127      C2128   1.426       .  A
C2127      C2134   1.444       .  S
C2128      C2129   1.411       .  A
C2129      C2130   1.419       .  A
C2129      H2132   1.084       .  S
C2130      C2133   1.442       .  S
C2133      N2135   1.157       .  T
C2134      N2136   1.157       .  T
C2137      C2138   1.408       .  A
C2137      C2142   1.418       .  A
C2138      C2139   1.416       .  A
C2138      H2143   1.084       .  S
C2139      C2140   1.417       .  A
C2139      C2146   1.443       .  S
C2140      C2141   1.403       .  A
C2141      C2142   1.403       .  A
C2141      H2144   1.085       .  S
C2142      C2145   1.445       .  S
C2145      N2147   1.157       .  T
C2146      N2148   1.157       .  T
C2149      C2150   1.410       .  A
C2149      C2154   1.425       .  A
C2150      C2151   1.398       .  A
C2150      H2155   1.075       .  S
C2151      C2152   1.417       .  A
C2151      C2158   1.448       .  S
C2152      C2153   1.406       .  A
C2153      C2154   1.415       .  A
C2153      H2156   1.085       .  S
C2154      C2157   1.444       .  S
C2157      N2159   1.157       .  T
C2158      N2160   1.158       .  T
C2161      C2162   1.410       .  A
C2161      C2166   1.417       .  A
C2162      C2163   1.422       .  A
C2162      H2167   1.084       .  S
C2163      C2164   1.421       .  A
C2163      C2170   1.442       .  S
C2164      C2165   1.407       .  A
C2165      C2166   1.409       .  A
C2165      H2168   1.085       .  S
C2166      C2169   1.442       .  S
C2169      N2171   1.156       .  T
C2170      N2172   1.157       .  T
C2173      C2174   1.414       .  A
C2173      C2178   1.423       .  A
C2174      C2175   1.403       .  A
C2174      H2179   1.076       .  S
C2175      C2176   1.417       .  A
C2175      C2182   1.448       .  S
C2176      C2177   1.405       .  A
C2177      C2178   1.414       .  A
C2177      H2180   1.084       .  S
C2178      C2181   1.442       .  S
C2181      N2183   1.157       .  T
C2182      N2184   1.158       .  T
C2185      C2186   1.408       .  A
C2185      C2190   1.414       .  A
C2186      C2187   1.418       .  A
C2186      H2191   1.084       .  S
C2187      C2188   1.419       .  A
C2187      C2194   1.442       .  S
C2188      C2189   1.409       .  A
C2189      C2190   1.407       .  A
C2189      H2192   1.085       .  S
C2190      C2193   1.442       .  S
C2193      N2195   1.157       .  T
C2194      N2196   1.157       .  T
C2197      C2198   1.417       .  A
C2197      C2202   1.422       .  A
C2198      C2199   1.415       .  A
C2198      H2203   1.079       .  S
C2199      C2200   1.413       .  A
C2199      C2206   1.443       .  S
C2200      C2201   1.402       .  A
C2201      C2202   1.399       .  A
C2201      H2204   1.085       .  S
C2202      C2205   1.444       .  S
C2205      N2207   1.157       .  T
C2206      N2208   1.157       .  T
C2209      C2210   1.415       .  A
C2209      C2214   1.425       .  A
C2210      C2211   1.401       .  A
C2210      H2215   1.058       .  S
C2211      C2212   1.416       .  A
C2211      C2218   1.448       .  S
C2212      C2213   1.405       .  A
C2213      C2214   1.416       .  A
C2213      H2216   1.083       .  S
C2214      C2217   1.443       .  S
C2217      N2219   1.157       .  T
C2218      N2220   1.158       .  T
C2221      C2222   1.419       .  A
C2221      C2226   1.423       .  A
C2222      C2223   1.413       .  A
C2222      H2227   1.083       .  S
C2223      C2224   1.412       .  A
C2223      C2230   1.443       .  S
C2224      C2225   1.411       .  A
C2225      C2226   1.416       .  A
C2225      H2228   1.085       .  S
C2226      C2229   1.441       .  S
C2229      N2231   1.158       .  T
C2230      N2232   1.157       .  T
C2233      C2234   1.400       .  A
C2233      C2238   1.417       .  A
C2234      C2235   1.396       .  A
C2234      H2239   1.085       .  S
C2235      C2236   1.422       .  A
C2235      C2242   1.442       .  S
C2236      C2237   1.416       .  A
C2237      C2238   1.417       .  A
C2237      H2240   1.080       .  S
C2238      C2241   1.443       .  S
C2241      N2243   1.157       .  T
C2242      N2244   1.156       .  T
C2245      C2246   1.407       .  A
C2245      C2250   1.410       .  A
C2246      C2247   1.416       .  A
C2246      H2251   1.084       .  S
C2247      C2248   1.418       .  A
C2247      C2254   1.442       .  S
C2248      C2249   1.408       .  A
C2249      C2250   1.402       .  A
C2249      H2252   1.085       .  S
C2250      C2253   1.440       .  S
C2253      N2255   1.156       .  T
C2254      N2256   1.157       .  T
C2257      C2258   1.406       .  A
C2257      C2262   1.408       .  A
C2258      C2259   1.410       .  A
C2258      H2263   1.085       .  S
C2259      C2260   1.422       .  A
C2259      C2266   1.439   1_455  S
C2260      C2261   1.422       .  A
C2261      C2262   1.414       .  A
C2261      H2264   1.083       .  S
C2262      C2265   1.443       .  S
C2265      N2267   1.157       .  T
C2266      N2268   1.157       .  T
C2269      C2270   1.410       .  A
C2269      C2274   1.418       .  A
C2270      C2271   1.422       .  A
C2270      H2275   1.084       .  S
C2271      C2272   1.426       .  A
C2271      C2278   1.442       .  S
C2272      C2273   1.412       .  A
C2273      C2274   1.404       .  A
C2273      H2276   1.083       .  S
C2274      C2277   1.445       .  S
C2277      N2279   1.157       .  T
C2278      N2280   1.158       .  T
C2281      C2282   1.414       .  A
C2281      C2286   1.425       .  A
C2282      C2283   1.415       .  A
C2282      H2287   1.080       .  S
C2283      C2284   1.416       .  A
C2283      C2290   1.442       .  S
C2284      C2285   1.403       .  A
C2285      C2286   1.398       .  A
C2285      H2288   1.085       .  S
C2286      C2289   1.447       .  S
C2289      N2291   1.157   1_455  T
C2290      N2292   1.157       .  T
C2293      C2294   1.400       .  A
C2293      C2298   1.418       .  A
C2294      C2295   1.405       .  A
C2294      H2299   1.078   1_455  S
C2295      C2296   1.421       .  A
C2295      C2302   1.445   1_455  S
C2296      C2297   1.404       .  A
C2297      C2298   1.407       .  A
C2297      H2300   1.084       .  S
C2298      C2301   1.444       .  S
C2301      N2303   1.157       .  T
C2302      N2304   1.158       .  T
C2305      C2306   1.407       .  A
C2305      C2310   1.416       .  A
C2306      C2307   1.419       .  A
C2306      H2311   1.084       .  S
C2307      C2308   1.420       .  A
C2307      C2314   1.442       .  S
C2308      C2309   1.408       .  A
C2309      C2310   1.406       .  A
C2309      H2312   1.085       .  S
C2310      C2313   1.445       .  S
C2313      N2315   1.157       .  T
C2314      N2316   1.157       .  T
C2317      C2318   1.417       .  A
C2317      C2322   1.422       .  A
C2318      C2319   1.408       .  A
C2318      H2323   1.080       .  S
C2319      C2320   1.407       .  A
C2319      C2326   1.443       .  S
C2320      C2321   1.405       .  A
C2321      C2322   1.407       .  A
C2321      H2324   1.085       .  S
C2322      C2325   1.445       .  S
C2325      N2327   1.158       .  T
C2326      N2328   1.157       .  T
C2329      C2330   1.414       .  A
C2329      C2334   1.428       .  A
C2330      C2331   1.398       .  A
C2330      H2335   1.084       .  S
C2331      C2332   1.410       .  A
C2331      C2338   1.445       .  S
C2332      C2333   1.404       .  A
C2333      C2334   1.412       .  A
C2333      H2336   1.085       .  S
C2334      C2337   1.440       .  S
C2337      N2339   1.158       .  T
C2338      N2340   1.157       .  T
C2341      C2342   1.406       .  A
C2341      C2346   1.414       .  A
C2342      C2343   1.415       .  A
C2342      H2347   1.084       .  S
C2343      C2344   1.418       .  A
C2343      C2350   1.443       .  S
C2344      C2345   1.406       .  A
C2345      C2346   1.405       .  A
C2345      H2348   1.085       .  S
C2346      C2349   1.445       .  S
C2349      N2351   1.157       .  T
C2350      N2352   1.157       .  T
