geometry optimzed in LAMMPS
_audit_creation_date              2020-11-30 
_audit_creation_method            'lammps2cif' 
_symmetry_space_group_name_H-M    'P1' 
_symmetry_Int_Tables_number       1 
_symmetry_cell_setting            triclinic 
loop_ 
_symmetry_equiv_pos_as_xyz 
  x,y,z 
_cell_length_a                    27.37803345 
_cell_length_b                    27.54260866053061 
_cell_length_c                    25.685357154743873 
_cell_angle_alpha                 89.72430334780323 
_cell_angle_beta                  90.00613496876346 
_cell_angle_gamma                 90.16487158646875 
loop_ 
_atom_site_label 
_atom_site_type_symbol 
_atom_site_fract_x 
_atom_site_fract_y 
_atom_site_fract_z 
_atom_site_charge 
C1          C  0.32329661  0.30269434  0.16031057    -0.01800
C2          C  0.33070519  0.14487622  0.43536019    -0.01800
C3          C  0.10735366  0.10151870  0.17307840    -0.01800
C4          C  0.10902671  0.36589453  0.42079078    -0.01800
C5          C  0.30117746  0.11697367  0.66673269    -0.01800
C6          C  0.10737106  0.09071156  0.91615895    -0.01800
C7          C  0.11181039  0.36746035  0.68415206    -0.01800
C8          C  0.31617732  0.34694346  0.91897083    -0.01800
O9          O  0.54805780  0.39005180  0.14804706    -0.74600
O10         O  0.50492743  0.33432306  0.10081407    -0.53500
C11         C  0.53885593  0.34667899  0.13389602     0.79100
O12         O  0.33178237  0.54346904  0.11751743    -0.59200
O13         O  0.38531824  0.60375589  0.13014014    -0.52200
C14         C  0.34386930  0.58284652  0.14026739     0.71100
O15         O  0.34312044  0.38533730  0.14307140    -0.73800
O16         O  0.38873890  0.32892198  0.10050936    -0.54300
C17         C  0.35400198  0.34137293  0.13232947     0.77100
O18         O  0.52376375  0.54181611  0.17643741    -0.58900
O19         O  0.51489449  0.60245982  0.11838216    -0.52000
C20         C  0.53814229  0.58155937  0.15634876     0.73700
Zr21       Zr  0.51330917  0.46755766  0.13096872     2.54700
O22         O  0.51378808  0.44979344  0.22390006    -0.79500
O23         O  0.60115507  0.47850478  0.12431781    -0.92900
Zr24       Zr  0.37242113  0.46657696  0.12882457     2.64700
O25         O  0.38626982  0.47255084  0.22229705    -0.97800
O26         O  0.28783418  0.45605306  0.15573673    -0.79900
O27         O  0.44312825  0.41769112  0.12628594    -0.83300
O28         O  0.44228243  0.51618905  0.13765283    -2.18000
O29         O  0.54641812  0.56261437  0.96176017    -0.66700
O30         O  0.50186225  0.61763925  0.00786473    -0.51200
C31         C  0.53562722  0.60599978  0.97447775     0.72100
O32         O  0.37732389  0.40780853  0.92948114    -0.59600
O33         O  0.38085585  0.34536902  0.98566485    -0.51500
C34         C  0.36073366  0.36750936  0.94665902     0.73900
O35         O  0.34398279  0.56363570  0.96402496    -0.71000
O36         O  0.38479572  0.61823115  0.01485224    -0.49600
C37         C  0.35207758  0.60677440  0.98047301     0.75300
O38         O  0.51926669  0.40828504  0.92984891    -0.66300
O39         O  0.50913819  0.34563273  0.98553843    -0.53500
C40         C  0.53197402  0.36676204  0.94732690     0.73700
Zr41       Zr  0.51535451  0.48262717  0.97872368     2.77500
O42         O  0.51802250  0.49755125  0.88512925    -0.97000
O43         O  0.60308254  0.47012934  0.98590065    -0.77900
Zr44       Zr  0.37386350  0.48223560  0.97786405     2.70100
O45         O  0.36306472  0.50244657  0.88623393    -0.79100
O46         O  0.28712087  0.46574330  0.98916825    -0.98200
Zr47       Zr  0.44484673  0.37725389  0.04441224     2.21500
Zr48       Zr  0.44501945  0.57199992  0.06548894     2.11100
O49         O  0.44458046  0.53170229  0.98285978    -2.46900
O50         O  0.44480381  0.43383354  0.97300027    -0.78900
O51         O  0.51604425  0.52249649  0.06015516    -0.71100
O52         O  0.37214329  0.42601064  0.04822046    -2.32100
O53         O  0.51589510  0.42773646  0.04976106    -2.28300
O54         O  0.37410008  0.52175062  0.05834160    -0.72900
H55         H  0.43982446  0.53376659  0.16990697     0.79100
H56         H  0.34296958  0.40635848  0.04579219     0.80200
H57         H  0.44450536  0.55498294  0.95460656     0.82500
H58         H  0.54535305  0.40867287  0.04777926     0.80100
H59         H  0.26937036  0.45281706  0.12277165     0.43100
H60         H  0.27730451  0.48633106  0.01884716     0.42100
H61         H  0.39665994  0.50742812  0.87293765     0.41700
H62         H  0.49553022  0.52505600  0.87906193     0.39700
H63         H  0.61466447  0.49700647  0.00823576     0.42800
H64         H  0.61179443  0.45438136  0.09826355     0.37600
H65         H  0.48147396  0.43488959  0.23082964     0.43700
H66         H  0.38554520  0.50761307  0.23019523     0.40100
H67         H  0.55101852  0.51070376  0.87782011     0.45000
H68         H  0.61356109  0.46563030  0.15779536     0.43800
H69         H  0.35612930  0.45936778  0.23833800     0.43900
H70         H  0.27130776  0.48093606  0.95858117     0.44300
C71         C  0.30511738  0.60348148  0.17687952    -0.01800
C72         C  0.10754715  0.87146588  0.18951060    -0.01800
C73         C  0.11047540  0.59454144  0.41828218    -0.01800
C74         C  0.31078296  0.84959206  0.42252919    -0.01800
O75         O  0.34436712  0.06233014  0.45659463    -0.74600
O76         O  0.38713756  0.11893212  0.50285775    -0.53500
C77         C  0.35489967  0.10610969  0.46829742     0.79100
O78         O  0.35189967  0.88747151  0.65300382    -0.59200
O79         O  0.39098659  0.83218858  0.60225477    -0.52200
C80         C  0.36032059  0.84402044  0.63868513     0.71100
O81         O  0.34038193  0.04318282  0.65015452    -0.73800
O82         O  0.37866452  0.10998055  0.61740112    -0.54300
C83         C  0.34397409  0.08890485  0.64378889     0.77100
O84         O  0.37641259  0.90758164  0.42913648    -0.58900
O85         O  0.38077383  0.84450630  0.48373437    -0.52000
C86         C  0.35934505  0.86734801  0.44592424     0.73700
Zr87       Zr  0.37110017  0.98192468  0.47783850     2.54700
O88         O  0.28532629  0.96724623  0.49733106    -0.79500
O89         O  0.34965644  0.99197395  0.38622969    -0.92900
Zr90       Zr  0.37603516  0.96799815  0.62824766     2.64700
O91         O  0.28699413  0.96727403  0.62298095    -0.97800
O92         O  0.37864187  0.96541045  0.72301719    -0.79900
O93         O  0.37372517  0.02325231  0.55789433    -0.83300
O94         O  0.37205822  0.92621466  0.54848746    -2.18000
O95         O  0.51586976  0.90788973  0.42830946    -0.66700
O96         O  0.51069463  0.84618876  0.48555167    -0.51200
C97         C  0.53180706  0.86788767  0.44677253     0.72100
O98         O  0.55588868  0.04841664  0.61424173    -0.59600
O99         O  0.50134815  0.10618608  0.62920906    -0.51500
C100        C  0.54262999  0.08551946  0.63983353     0.73900
O101        O  0.54624284  0.88963257  0.64307769    -0.71000
O102        O  0.50267426  0.83320280  0.59763737    -0.49600
C103        C  0.53637792  0.84580020  0.63051961     0.75300
O104        O  0.54768423  0.06339128  0.46295430    -0.66300
O105        O  0.50561467  0.12057881  0.50851199    -0.53500
C106        C  0.54025530  0.10737130  0.47673363     0.73700
Zr107      Zr  0.51255521  0.98399109  0.47377757     2.77500
O108        O  0.60088105  0.97735452  0.48198157    -0.97000
O109        O  0.51268156  0.99958670  0.38043485    -0.77900
Zr110      Zr  0.51729528  0.97044530  0.62437265     2.70100
O111        O  0.60567010  0.96780839  0.63143600    -0.79100
O112        O  0.51040972  0.97660365  0.71848079    -0.98200
Zr113      Zr  0.44377264  0.07492683  0.56143428     2.21500
Zr114      Zr  0.44488964  0.87815542  0.54202838     2.11100
O115        O  0.51626065  0.92870142  0.54459857    -2.46900
O116        O  0.51365879  0.02471678  0.55351050    -0.78900
O117        O  0.44236135  0.93441820  0.47052050    -0.71100
O118        O  0.44601817  0.01871222  0.63411498    -2.32100
O119        O  0.44168102  0.03267292  0.47952965    -2.28300
O120        O  0.44719184  0.92032828  0.62283070    -0.72900
H121        H  0.34317628  0.90599131  0.54783129     0.79100
H122        H  0.44624013  0.03579043  0.66681824     0.80200
H123        H  0.54573978  0.90973098  0.54250568     0.82500
H124        H  0.44138521  0.05533422  0.45068182     0.80100
H125        H  0.38635040  0.99906495  0.73365328     0.43100
H126        H  0.47771251  0.96320389  0.72661032     0.42100
H127        H  0.61666351  0.95161386  0.59918165     0.41700
H128        H  0.60768963  0.94291629  0.49009318     0.39700
H129        H  0.48646151  0.02372477  0.37480549     0.42800
H130        H  0.37079245  0.01843865  0.37283421     0.37600
H131        H  0.26985135  0.99962004  0.49502701     0.43700
H132        H  0.27752966  0.93369749  0.61373197     0.40100
H133        H  0.61363649  0.98290734  0.44639600     0.45000
H134        H  0.31610878  0.00525180  0.38561624     0.43800
H135        H  0.27531396  0.97174486  0.65910991     0.43900
H136        H  0.53332867  0.95176687  0.73191313     0.44300
C137        C  0.57818667  0.34458889  0.92372342    -0.01800
C138        C  0.78168811  0.37129423  0.69040637    -0.01800
C139        C  0.57918019  0.10305482  0.68101434    -0.01800
C140        C  0.77894650  0.09141254  0.91645468    -0.01800
C141        C  0.32441122  0.64765261  0.95413000    -0.01800
C142        C  0.33336821  0.80403189  0.66791894    -0.01800
C143        C  0.10333510  0.61018137  0.67220819    -0.01800
C144        C  0.09881544  0.84670562  0.93148532    -0.01800
C145        C  0.57692275  0.84729902  0.42019271    -0.01800
C146        C  0.78205888  0.58533090  0.41302988    -0.01800
C147        C  0.58500254  0.60224301  0.17956822    -0.01800
C148        C  0.77969747  0.85979101  0.17972343    -0.01800
C149        C  0.56167125  0.64624326  0.94484142    -0.01800
C150        C  0.78836087  0.61094063  0.66846214    -0.01800
C151        C  0.56464821  0.80595297  0.65822506    -0.01800
C152        C  0.79657785  0.84225231  0.92965182    -0.01800
O153        O  0.02298832  0.07510027  0.16380452    -0.74600
O154        O  0.08127456  0.03646186  0.11533630    -0.53500
C155        C  0.06768333  0.06750916  0.15096004     0.79100
O156        O  0.86445198  0.87468890  0.15500556    -0.59200
O157        O  0.80569105  0.91905031  0.11301747    -0.52200
C158        C  0.81952229  0.88597432  0.14677636     0.71100
O159        O  0.02317601  0.88113240  0.16113235    -0.73800
O160        O  0.08189884  0.92532860  0.11850391    -0.54300
C161        C  0.06789293  0.89397709  0.15395353     0.77100
O162        O  0.86523045  0.07472161  0.16350822    -0.58900
O163        O  0.80744848  0.03253489  0.11748889    -0.52000
C164        C  0.82063745  0.06405516  0.15315685     0.73700
Zr165      Zr  0.94395206  0.04701476  0.13102532     2.54700
O166        O  0.94372851  0.03684749  0.22518985    -0.79500
O167        O  0.94584978  0.13540335  0.12749718    -0.92900
Zr168      Zr  0.94407020  0.90398586  0.12411022     2.64700
O169        O  0.94459071  0.90547715  0.21896202    -0.97800
O170        O  0.94502190  0.81638050  0.11174899    -0.79900
O171        O  0.99238857  0.97570622  0.12726972    -0.83300
O172        O  0.89539729  0.97516136  0.12700282    -2.18000
O173        O  0.86366980  0.08121847  0.94444078    -0.66700
O174        O  0.80559623  0.03418239  0.98484897    -0.51200
C175        C  0.81902025  0.06760662  0.95110837     0.72100
O176        O  0.02338372  0.88858026  0.93675752    -0.59600
O177        O  0.08275311  0.91727245  0.99105298    -0.51500
C178        C  0.06745625  0.88903924  0.95319132     0.73900
O179        O  0.87027405  0.88689400  0.93582212    -0.71000
O180        O  0.80937748  0.91359863  0.98922613    -0.49600
C181        C  0.82610130  0.88578513  0.95174080     0.75300
O182        O  0.02337255  0.08256901  0.94550605    -0.66300
O183        O  0.08147969  0.03611015  0.98624555    -0.53500
C184        C  0.06788901  0.06927830  0.95255164     0.73700
Zr185      Zr  0.94375248  0.05623786  0.97847499     2.77500
O186        O  0.94882878  0.06045234  0.88363506    -0.97000
O187        O  0.94370927  0.14262951  0.99771522    -0.77900
Zr188      Zr  0.94625803  0.91528094  0.97019828     2.70100
O189        O  0.94888496  0.93831229  0.87857378    -0.79100
O190        O  0.95001118  0.82711696  0.96243420    -0.98200
Zr191      Zr  0.04307286  0.97930799  0.05132113     2.21500
Zr192      Zr  0.84543677  0.97763082  0.04998194     2.11100
O193        O  0.89565358  0.98432227  0.97367202    -2.46900
O194        O  0.99417289  0.98601360  0.97470464    -0.78900
O195        O  0.89430854  0.05044619  0.05463683    -0.71100
O196        O  0.99333363  0.90780714  0.04765133    -2.32100
O197        O  0.99314661  0.05120789  0.05469131    -2.28300
O198        O  0.89693949  0.90768421  0.04620514    -0.72900
H199        H  0.87509344  0.97377156  0.15771026     0.79100
H200        H  0.01328011  0.87894208  0.04629025     0.80200
H201        H  0.87585683  0.98491425  0.94255458     0.82500
H202        H  0.01361003  0.07980125  0.05610858     0.80100
H203        H  0.94279888  0.81199158  0.07360610     0.43100
H204        H  0.91904947  0.81485913  0.97753296     0.42100
H205        H  0.93835368  0.90886113  0.85963908     0.41700
H206        H  0.91670197  0.04945176  0.87043154     0.39700
H207        H  0.94517588  0.15862408  0.96314266     0.42800
H208        H  0.94403611  0.14566575  0.16433832     0.37600
H209        H  0.93934311  0.07011463  0.23887532     0.43700
H210        H  0.91362069  0.92131303  0.22907080     0.40100
H211        H  0.95013219  0.09555124  0.87523087     0.45000
H212        H  0.91399531  0.14493425  0.11239463     0.43800
H213        H  0.94048676  0.87115744  0.22970490     0.43900
H214        H  0.94713231  0.82068909  0.92465002     0.44300
C215        C  0.57439982  0.14534650  0.45145328    -0.01800
C216        C  0.78001866  0.09138882  0.18299372    -0.01800
C217        C  0.56731814  0.30737716  0.16175862    -0.01800
C218        C  0.78281714  0.35272820  0.43362879    -0.01800
O219        O  0.02448169  0.38557568  0.43895460    -0.74600
O220        O  0.08309125  0.42582573  0.48575946    -0.53500
C221        C  0.06928929  0.39513091  0.44964434     0.79100
O222        O  0.86633775  0.57804720  0.44260231    -0.59200
O223        O  0.80796285  0.53435950  0.48648678    -0.52200
C224        C  0.82161818  0.56551111  0.45059985     0.71100
O225        O  0.02552362  0.58135913  0.44400679    -0.73800
O226        O  0.08416510  0.53847761  0.48784324    -0.54300
C227        C  0.07042399  0.57030694  0.45267865     0.77100
O228        O  0.86732860  0.37950446  0.44341615    -0.58900
O229        O  0.80907314  0.41979598  0.49020726    -0.52000
C230        C  0.82252795  0.38748371  0.45566021     0.73700
Zr231      Zr  0.94598651  0.41033684  0.47455991     2.54700
O232        O  0.94232256  0.41444337  0.37993503    -0.79500
O233        O  0.94834644  0.32274877  0.48834025    -0.92900
Zr234      Zr  0.94611376  0.55439317  0.47795308     2.64700
O235        O  0.95235240  0.55562102  0.38333220    -0.97800
O236        O  0.94439789  0.64163579  0.49338861    -0.79900
O237        O  0.99400538  0.48254600  0.47658155    -0.83300
O238        O  0.89800792  0.48205143  0.47613600    -2.18000
O239        O  0.86657642  0.38202072  0.66359267    -0.66700
O240        O  0.80801580  0.42439843  0.61883284    -0.51200
C241        C  0.82173714  0.39359494  0.65495930     0.72100
O242        O  0.02368683  0.57592371  0.66321344    -0.59600
O243        O  0.08404430  0.53916080  0.61631387    -0.51500
C244        C  0.06870928  0.57024685  0.65127051     0.73900
O245        O  0.86780002  0.57608061  0.66180883    -0.71000
O246        O  0.80795124  0.53943277  0.61370533    -0.49600
C247        C  0.82299936  0.57080836  0.64856160     0.75300
O248        O  0.02669213  0.37950700  0.65936336    -0.66300
O249        O  0.08465702  0.42557201  0.61763118    -0.53500
C250        C  0.07135041  0.39250357  0.65160466     0.73700
Zr251      Zr  0.94642488  0.40549928  0.62749331     2.77500
O252        O  0.95196164  0.40607943  0.72218667    -0.97000
O253        O  0.94338202  0.31808712  0.61429010    -0.77900
Zr254      Zr  0.94596715  0.54770266  0.63118485     2.70100
O255        O  0.94594469  0.53514797  0.72511578    -0.79100
O256        O  0.94554426  0.63624749  0.63026496    -0.98200
Zr257      Zr  0.04479891  0.48111406  0.55243164     2.21500
Zr258      Zr  0.84761229  0.47945239  0.55261835     2.11100
O259        O  0.89751646  0.47672410  0.62937840    -2.46900
O260        O  0.99494851  0.47719779  0.62890370    -0.78900
O261        O  0.89697215  0.40763343  0.55104788    -0.71100
O262        O  0.99493189  0.55251339  0.55465425    -2.32100
O263        O  0.99567949  0.40854580  0.55085316    -2.28300
O264        O  0.89711717  0.55142125  0.55460649    -0.72900
H265        H  0.87786811  0.48214175  0.44528100     0.79100
H266        H  0.01508813  0.58134797  0.55569287     0.80200
H267        H  0.87747339  0.47665158  0.66030507     0.82500
H268        H  0.01657898  0.38039548  0.55012995     0.80100
H269        H  0.97909716  0.65145425  0.49650646     0.43100
H270        H  0.91819263  0.64522489  0.60692109     0.42100
H271        H  0.95636435  0.56669821  0.73980719     0.41700
H272        H  0.92695945  0.42965026  0.73357487     0.39700
H273        H  0.93377613  0.30458771  0.64860243     0.42800
H274        H  0.98297083  0.31499715  0.49565366     0.37600
H275        H  0.92714271  0.44622125  0.37212527     0.43700
H276        H  0.92344592  0.53743941  0.37083045     0.40100
H277        H  0.93918011  0.37407480  0.73352101     0.45000
H278        H  0.94213617  0.30875186  0.45352767     0.43800
H279        H  0.94593813  0.58975217  0.37325047     0.43900
H280        H  0.93444231  0.64576581  0.66546338     0.44300
C281        C  0.64057973  0.33427209  0.27711797     0.21000
C282        C  0.64442146  0.33284542  0.33074144    -0.38900
C283        C  0.67771072  0.36486845  0.35255083     0.20000
C284        C  0.71079329  0.39049063  0.32327175     0.22600
C285        C  0.70358384  0.39553267  0.26833079    -0.39400
C286        C  0.66383769  0.36841780  0.24701009     0.21400
N287        N  0.61236118  0.30552550  0.24892436    -0.32600
C288        C  0.60737898  0.32621485  0.20131978    -0.10200
C289        C  0.64179291  0.36492244  0.19771861    -0.29000
N290        N  0.75105857  0.39977770  0.35293342    -0.45600
C291        C  0.74255609  0.37986384  0.40142320    -0.04900
C292        C  0.69425009  0.36247867  0.40178532    -0.22200
H293        H  0.62422887  0.30674566  0.35402459     0.19600
H294        H  0.72792238  0.41668355  0.24401412     0.18400
H295        H  0.64944156  0.38739892  0.16408930     0.14600
H296        H  0.67708834  0.33721546  0.42800189     0.14500
H297        H  0.59785695  0.27290930  0.26255101     0.32700
H298        H  0.78493840  0.41107092  0.33857854     0.35400
C299        C  0.62209751  0.20702449  0.09782289     0.21000
C300        C  0.62944980  0.15666002  0.10154370    -0.38900
C301        C  0.67841334  0.14177356  0.10585807     0.20000
C302        C  0.71681304  0.17407881  0.10179036     0.22600
C303        C  0.70937511  0.22403797  0.09991586    -0.39400
C304        C  0.66089553  0.23898665  0.09870500     0.21400
N305        N  0.58024979  0.23080937  0.10718817    -0.32600
C306        C  0.59347512  0.27655873  0.12084445    -0.10200
C307        C  0.64295473  0.28375215  0.10956857    -0.29000
N308        N  0.75854429  0.15331152  0.11611939    -0.45600
C309        C  0.74631098  0.11055662  0.13927617    -0.04900
C310        C  0.69693935  0.10027171  0.12852385    -0.22200
H311        H  0.59938881  0.13186702  0.10852226     0.19600
H312        H  0.73920736  0.24960577  0.10426186     0.18400
H313        H  0.66527579  0.31522487  0.11723298     0.14600
H314        H  0.67446793  0.07024136  0.13969508     0.14500
H315        H  0.54524860  0.21586935  0.10651519     0.32700
H316        H  0.79180084  0.17173446  0.11987443     0.35400
C317        C  0.77602046  0.25219810  0.34101292     0.21000
C318        C  0.74696004  0.22218729  0.31026130    -0.38900
C319        C  0.77072482  0.19658922  0.27126261     0.20000
C320        C  0.82063502  0.19707345  0.26466431     0.22600
C321        C  0.85015422  0.23007245  0.29451631    -0.39400
C322        C  0.82513386  0.25920711  0.33242175     0.21400
N323        N  0.75988144  0.27958372  0.37987157    -0.32600
C324        C  0.79628036  0.31001277  0.39528396    -0.10200
C325        C  0.83901411  0.29718861  0.36683534    -0.29000
N326        N  0.83365239  0.16184911  0.22961230    -0.45600
C327        C  0.79084161  0.14011140  0.21381866    -0.04900
C328        C  0.75147798  0.16338557  0.23801041    -0.22200
H329        H  0.70797492  0.21877979  0.31660120     0.19600
H330        H  0.88924208  0.23267609  0.28894046     0.18400
H331        H  0.87463750  0.31405896  0.36927039     0.14600
H332        H  0.71331895  0.15309705  0.23572564     0.14500
H333        H  0.72449636  0.27727679  0.39455610     0.32700
H334        H  0.86913486  0.15178147  0.21975225     0.35400
C335        C  0.52386637  0.23288049  0.35888673     0.21000
C336        C  0.51881238  0.27713117  0.33196240    -0.38900
C337        C  0.50663328  0.27333471  0.27879662     0.20000
C338        C  0.50785391  0.22892358  0.25411004     0.22600
C339        C  0.50757044  0.18525419  0.28202505    -0.39400
C340        C  0.51227255  0.18956366  0.33588423     0.21400
N341        N  0.54604106  0.22485556  0.40480847    -0.32600
C342        C  0.54331636  0.17587256  0.41357496    -0.10200
C343        C  0.51864358  0.15404311  0.37213496    -0.29000
N344        N  0.52226873  0.23418006  0.20462571    -0.45600
C345        C  0.52821132  0.28276376  0.19664965    -0.04900
C346        C  0.51162748  0.30811858  0.24077999    -0.22200
H347        H  0.52826902  0.31153113  0.34955349     0.19600
H348        H  0.50841348  0.15032536  0.26290546     0.18400
H349        H  0.51024140  0.11629436  0.36635421     0.14600
H350        H  0.51845864  0.34616213  0.24851497     0.14500
H351        H  0.56766998  0.25095185  0.42276901     0.32700
H352        H  0.53659913  0.20503065  0.18443990     0.35400
C353        C  0.63277139  0.24032528  0.52393409     0.21000
C354        C  0.64572614  0.28989604  0.52503822    -0.38900
C355        C  0.69624928  0.30032713  0.52389085     0.20000
C356        C  0.73039444  0.26381794  0.51854765     0.22600
C357        C  0.71761309  0.21466247  0.52244032    -0.39400
C358        C  0.66764086  0.20438327  0.52643221     0.21400
N359        N  0.58977478  0.22128404  0.50844311    -0.32600
C360        C  0.59893068  0.17404636  0.49638330    -0.10200
C361        C  0.64461979  0.16118323  0.51616759    -0.29000
N362        N  0.77099643  0.28106418  0.49574193    -0.45600
C363        C  0.76186271  0.32828705  0.48361417    -0.04900
C364        C  0.71890209  0.34301019  0.50881280    -0.22200
H365        H  0.61871572  0.31814303  0.51990182     0.19600
H366        H  0.74399052  0.18626295  0.51530680     0.18400
H367        H  0.66269106  0.12655225  0.51182122     0.14600
H368        H  0.70064371  0.37752688  0.50363568     0.22500
H369        H  0.55742322  0.24048180  0.50268274     0.32700
H370        H  0.79911909  0.25958421  0.48097912     0.35400
C371        C  0.64491540  0.07592198  0.35220450     0.21000
C372        C  0.64930320  0.05063009  0.30491311    -0.38900
C373        C  0.69651068  0.04872003  0.28321984     0.20000
C374        C  0.73668592  0.06634139  0.30908639     0.22600
C375        C  0.73162708  0.09446851  0.35457842    -0.39400
C376        C  0.68383160  0.09978613  0.37386500     0.21400
N377        N  0.60352937  0.08661442  0.37776793    -0.32600
C378        C  0.61427770  0.12017051  0.41524797    -0.10200
C379        C  0.66497708  0.13022780  0.41145707    -0.29000
N380        N  0.77574665  0.06607095  0.27745799    -0.45600
C381        C  0.75910983  0.05828893  0.22782120    -0.04900
C382        C  0.71079297  0.04117602  0.23213969    -0.22200
H383        H  0.61750534  0.03775073  0.28404466     0.19600
H384        H  0.76209674  0.11432558  0.37098256     0.18400
H385        H  0.68605317  0.15819403  0.43034129     0.14600
H386        H  0.68702746  0.02782230  0.20236757     0.14500
H387        H  0.57012969  0.07083977  0.36900750     0.32700
H388        H  0.80939846  0.08147107  0.28738623     0.35400
C389        C  0.64765342  0.81227299  0.76803621     0.21000
C390        C  0.66666631  0.79250223  0.81318970    -0.38900
C391        C  0.69396692  0.82369961  0.84365175     0.20000
C392        C  0.70505197  0.87088256  0.83009737     0.22600
C393        C  0.68476600  0.89145212  0.78410837    -0.39400
C394        C  0.65397077  0.86030303  0.75445555     0.21400
N395        N  0.61977439  0.78890382  0.73396244    -0.32600
C396        C  0.60345797  0.82200567  0.69911413    -0.10200
C397        C  0.62546277  0.86742781  0.71010086    -0.29000
N398        N  0.73972660  0.88892218  0.86303427    -0.45600
C399        C  0.74957642  0.85213080  0.89754025    -0.04900
C400        C  0.72044281  0.81184159  0.88567994    -0.22200
H401        H  0.66126537  0.75492110  0.82383753     0.19600
H402        H  0.69285128  0.92808404  0.77186522     0.18400
H403        H  0.62167133  0.90119979  0.68961056     0.14600
H404        H  0.72384520  0.77523759  0.90059485     0.14500
H405        H  0.61000414  0.75238265  0.73605490     0.32700
H406        H  0.75878175  0.92161318  0.85895893     0.35400
C407        C  0.66335369  0.75000116  0.59058477     0.21000
C408        C  0.71395469  0.74261591  0.58847796    -0.38900
C409        C  0.72921266  0.69424919  0.58406262     0.20000
C410        C  0.69625470  0.65618652  0.58550509     0.22600
C411        C  0.64550076  0.66382139  0.58448570    -0.39400
C412        C  0.63030984  0.71232552  0.58673240     0.21400
N413        N  0.64098263  0.79033440  0.60658954    -0.32600
C414        C  0.59385565  0.77781155  0.61724267    -0.10200
C415        C  0.58505712  0.73065146  0.59951099    -0.29000
N416        N  0.71848070  0.61619618  0.60355642    -0.45600
C417        C  0.76446209  0.63026068  0.61754340    -0.04900
C418        C  0.77443930  0.67560866  0.59574111    -0.22200
H419        H  0.73962851  0.77191037  0.59511484     0.19600
H420        H  0.61987795  0.63415124  0.58936397     0.18400
H421        H  0.55120871  0.71053646  0.59964300     0.14600
H422        H  0.80784507  0.69635863  0.59943151     0.14500
H423        H  0.65874915  0.82251999  0.61683222     0.32700
H424        H  0.70024920  0.58490261  0.61618959     0.35400
C425        C  0.84298832  0.68605766  0.77396835     0.21000
C426        C  0.85540675  0.69543845  0.82686439    -0.38900
C427        C  0.84984147  0.74429742  0.84413286     0.20000
C428        C  0.83477996  0.78050923  0.81095714     0.22600
C429        C  0.82232759  0.77118469  0.75913554    -0.39400
C430        C  0.82645833  0.72295070  0.74257184     0.21400
N431        N  0.83685642  0.64260590  0.74949877    -0.32600
C432        C  0.81512113  0.65146883  0.70213922    -0.10200
C433        C  0.80730010  0.70211063  0.69892270    -0.29000
N434        N  0.82512135  0.82148207  0.83706310    -0.45600
C435        C  0.82836101  0.81171088  0.88913796    -0.04900
C436        C  0.84921523  0.76470186  0.89379151    -0.22200
H437        H  0.86451572  0.66637130  0.85360858     0.19600
H438        H  0.80635023  0.79893826  0.73452435     0.18400
H439        H  0.78322651  0.72251499  0.67416497     0.14600
H440        H  0.86337247  0.74687595  0.92783946     0.14500
H441        H  0.84263103  0.60845347  0.76619079     0.32700
H442        H  0.81145414  0.85289630  0.81965563     0.35400
C443        C  0.50227795  0.72523857  0.85441159     0.21000
C444        C  0.50153361  0.76940185  0.82713337    -0.38900
C445        C  0.50151216  0.76595643  0.77275405     0.20000
C446        C  0.50735888  0.72221920  0.74783543     0.22600
C447        C  0.50573479  0.67790492  0.77499621    -0.39400
C448        C  0.50042324  0.68128056  0.82916321     0.21400
N449        N  0.51446869  0.71901782  0.90455285    -0.32600
C450        C  0.52118350  0.67042465  0.91153762    -0.10200
C451        C  0.50604810  0.64588362  0.86625710    -0.29000
N452        N  0.52381220  0.72933529  0.69919586    -0.45600
C453        C  0.52689278  0.77845522  0.69212420    -0.04900
C454        C  0.50869776  0.80184965  0.73654086    -0.22200
H455        H  0.50450875  0.80396991  0.84675340     0.19600
H456        H  0.51204034  0.64353272  0.75590916     0.18400
H457        H  0.51273540  0.60807084  0.85763931     0.14600
H458        H  0.51229371  0.84012124  0.74530418     0.14500
H459        H  0.52421040  0.74788241  0.92788066     0.32700
H460        H  0.53984688  0.70145580  0.67841578     0.35400
C461        C  0.65108244  0.59399554  0.85114199     0.21000
C462        C  0.68464891  0.56199400  0.82631694    -0.38900
C463        C  0.70423629  0.57851009  0.77780317     0.20000
C464        C  0.68884261  0.62190688  0.75656454     0.22600
C465        C  0.65900266  0.65412568  0.78245313    -0.39400
C466        C  0.64224931  0.63927021  0.83054420     0.21400
N467        N  0.62486118  0.58819932  0.89576947    -0.32600
C468        C  0.60024736  0.63110516  0.90273778    -0.10200
C469        C  0.61389172  0.66413492  0.86409121    -0.29000
N470        N  0.71217839  0.63236278  0.71292767    -0.45600
C471        C  0.74593045  0.59741812  0.70484818    -0.04900
C472        C  0.74216737  0.56232725  0.74511898    -0.22200
H473        H  0.69546699  0.52797260  0.84389640     0.19600
H474        H  0.65052460  0.68922306  0.76632750     0.18400
H475        H  0.60159861  0.70111877  0.85913823     0.14600
H476        H  0.76664187  0.53229561  0.75235066     0.14500
H477        H  0.62477937  0.55744434  0.91959823     0.32700
H478        H  0.70932047  0.66563526  0.69346850     0.35400
C479        C  0.66514432  0.69991852  0.00371421     0.21000
C480        C  0.71599431  0.70317527  0.00189466    -0.38900
C481        C  0.73531484  0.75007534  0.00410747     0.20000
C482        C  0.70647840  0.79069205  0.00901028     0.22600
C483        C  0.65515066  0.78737441  0.00980008    -0.39400
C484        C  0.63570459  0.74026377  0.00631326     0.21400
N485        N  0.63869192  0.66030149  0.99404269    -0.32600
C486        C  0.59249846  0.67560849  0.98355946    -0.10200
C487        C  0.58856891  0.72483591  0.99675486    -0.29000
N488        N  0.73278582  0.83066735  0.99851823    -0.45600
C489        C  0.77612956  0.81506677  0.97817750    -0.04900
C490        C  0.78052151  0.76518052  0.98839252    -0.22200
H491        H  0.73860632  0.67179799  0.99436871     0.19600
H492        H  0.63219599  0.81926845  0.00832347     0.18400
H493        H  0.55685174  0.74763196  0.99828681     0.14600
H494        H  0.80793927  0.73973642  0.97813835     0.14500
H495        H  0.65323385  0.62597345  0.98674542     0.32700
H496        H  0.71766508  0.86514822  0.99321705     0.35400
C497        C  0.63327840  0.71057041  0.12412457     0.21000
C498        C  0.63386447  0.76135807  0.13007068    -0.38900
C499        C  0.68025916  0.78359159  0.12924716     0.20000
C500        C  0.72243312  0.75755896  0.12230077     0.22600
C501        C  0.72210091  0.70662150  0.12131267    -0.39400
C502        C  0.67584886  0.68440403  0.12253913     0.21400
N503        N  0.59472945  0.68066698  0.12981664    -0.32600
C504        C  0.61268216  0.63516043  0.13949813    -0.10200
C505        C  0.66371822  0.63664577  0.13105344    -0.29000
N506        N  0.76174561  0.78668040  0.12527746    -0.45600
C507        C  0.74587609  0.83087102  0.14211888    -0.04900
C508        C  0.69410113  0.83027831  0.14144061    -0.22200
H509        H  0.60083983  0.78177992  0.13716418     0.19600
H510        H  0.75552525  0.68573576  0.12146366     0.18400
H511        H  0.69171742  0.61089868  0.13903657     0.14600
H512        H  0.66809881  0.85553854  0.15634876     0.14500
H513        H  0.55919160  0.69235203  0.13756251     0.32700
H514        H  0.79787279  0.77451705  0.12579878     0.35400
C515        C  0.69981307  0.50870106  0.34454720     0.21000
C516        C  0.65010385  0.51113510  0.33103844    -0.38900
C517        C  0.63974759  0.52059619  0.27837576     0.20000
C518        C  0.67559218  0.52245639  0.24064981     0.22600
C519        C  0.72511930  0.51783800  0.25368084    -0.39400
C520        C  0.73584997  0.51322385  0.30699531     0.21400
N521        N  0.71788418  0.51991351  0.39180329    -0.32600
C522        C  0.76245863  0.54009751  0.38333792    -0.10200
C523        C  0.77695867  0.52998666  0.33201187    -0.29000
N524        N  0.65847782  0.54325086  0.19676870    -0.45600
C525        C  0.61339938  0.56067768  0.20809039    -0.04900
C526        C  0.59942656  0.54315434  0.25757111    -0.22200
H527        H  0.62218814  0.51472726  0.36061241     0.19600
H528        H  0.75339849  0.52638698  0.22561158     0.18400
H529        H  0.80872902  0.54478117  0.31239334     0.14600
H530        H  0.56685937  0.55292959  0.27895916     0.14500
H531        H  0.69818618  0.52015745  0.42657903     0.32700
H532        H  0.67684128  0.54332052  0.16145910     0.35400
C533        C  0.82482498  0.68452092  0.32361184     0.21000
C534        C  0.85289224  0.72303687  0.30014719    -0.38900
C535        C  0.82621901  0.75720889  0.26861572     0.20000
C536        C  0.77618754  0.75366430  0.26519308     0.22600
C537        C  0.75004541  0.71408546  0.28405780    -0.39400
C538        C  0.77606979  0.67990222  0.31196435     0.21400
N539        N  0.83735668  0.65007319  0.35997042    -0.32600
C540        C  0.79549419  0.62367433  0.36969085    -0.10200
C541        C  0.75799342  0.64091722  0.33778228    -0.29000
N542        N  0.75703727  0.79105144  0.23957650    -0.45600
C543        C  0.79398220  0.81804304  0.21919023    -0.04900
C544        C  0.83880882  0.79820423  0.23764411    -0.22200
H545        H  0.89178833  0.72661628  0.30656444     0.19600
H546        H  0.71144051  0.70993086  0.27811337     0.18400
H547        H  0.72030173  0.62897667  0.33708460     0.14600
H548        H  0.87528066  0.81113865  0.22944287     0.14500
H549        H  0.87110700  0.64686209  0.37845999     0.32700
H550        H  0.71966172  0.79655032  0.23433223     0.35400
C551        C  0.53501649  0.76604549  0.32117855     0.21000
C552        C  0.51144250  0.72308668  0.30471115    -0.38900
C553        C  0.54001579  0.69223116  0.27348877     0.20000
C554        C  0.58893725  0.70164492  0.26541698     0.22600
C555        C  0.61061789  0.74507290  0.27776604    -0.39400
C556        C  0.58204582  0.77654464  0.30528686     0.21400
N557        N  0.52206202  0.79620567  0.36001969    -0.32600
C558        C  0.56241524  0.82423328  0.36876846    -0.10200
C559        C  0.59909594  0.81351154  0.33333431    -0.29000
N560        N  0.61053510  0.66632766  0.24000272    -0.45600
C561        C  0.57419784  0.63731062  0.22317952    -0.04900
C562        C  0.52929027  0.65070739  0.24540384    -0.22200
H563        H  0.47556892  0.71270964  0.31808879     0.19600
H564        H  0.64782481  0.75378199  0.26787413     0.18400
H565        H  0.63718177  0.82412663  0.33504626     0.14600
H566        H  0.49372733  0.63450644  0.23917558     0.14500
H567        H  0.49129127  0.79284283  0.38382146     0.32700
H568        H  0.64740670  0.66532373  0.22967352     0.35400
C569        C  0.64043136  0.92978948  0.33395622     0.21000
C570        C  0.64649066  0.93610196  0.27968130    -0.38900
C571        C  0.69423713  0.93014537  0.26021480     0.20000
C572        C  0.73313222  0.92064480  0.29265098     0.22600
C573        C  0.72742247  0.91595205  0.34657772    -0.39400
C574        C  0.67958065  0.91915092  0.36557444     0.21400
N575        N  0.59862143  0.91663968  0.35785643    -0.32600
C576        C  0.61079789  0.89087197  0.40182912    -0.10200
C577        C  0.66149553  0.89653828  0.40931090    -0.29000
N578        N  0.77116599  0.90402297  0.26528030    -0.45600
C579        C  0.75591359  0.89863555  0.21514378    -0.04900
C580        C  0.70970431  0.92011244  0.21003318    -0.22200
H581        H  0.61537583  0.93836714  0.25379181     0.19600
H582        H  0.75685199  0.90244328  0.37075283     0.18400
H583        H  0.68589869  0.88037880  0.43646159     0.14600
H584        H  0.68837873  0.92515763  0.17517248     0.14500
H585        H  0.56468911  0.91576593  0.33923399     0.32700
H586        H  0.80309900  0.89001082  0.28171566     0.35400
C587        C  0.62476861  0.72916006  0.45345560     0.21000
C588        C  0.62867590  0.67941057  0.44280520    -0.38900
C589        C  0.67511408  0.65889605  0.45015740     0.20000
C590        C  0.71481942  0.68573562  0.46569461     0.22600
C591        C  0.71121639  0.73614676  0.47395177    -0.39400
C592        C  0.66421372  0.75630983  0.46881532     0.21400
N593        N  0.58591000  0.75775722  0.44525064    -0.32600
C594        C  0.60076763  0.80477533  0.45195233    -0.10200
C595        C  0.64820856  0.80361905  0.47275715    -0.29000
N596        N  0.75570512  0.65854416  0.46472644    -0.45600
C597        C  0.74338142  0.61448491  0.44433512    -0.04900
C598        C  0.69223676  0.61414273  0.43591812    -0.22200
H599        H  0.59826398  0.65860288  0.42769383     0.19600
H600        H  0.74282062  0.75816736  0.48321022     0.18400
H601        H  0.66822829  0.83218017  0.49151758     0.14600
H602        H  0.67018712  0.59026790  0.41267401     0.14500
H603        H  0.55242252  0.74545935  0.43118874     0.32700
H604        H  0.79118349  0.67170502  0.46998945     0.35400
C605        C  0.06942262  0.72268054  0.74232386     0.21000
C606        C  0.07888288  0.77099935  0.75635001    -0.38900
C607        C  0.06623872  0.78452691  0.80704769     0.20000
C608        C  0.04637550  0.75266345  0.84237779     0.22600
C609        C  0.03514174  0.70390191  0.82769569    -0.39400
C610        C  0.04746820  0.69016375  0.77572429     0.21400
N611        N  0.08735828  0.70022297  0.70024207    -0.32600
C612        C  0.07559056  0.65194584  0.70300152    -0.10200
C613        C  0.05018674  0.64491051  0.75081431    -0.29000
N614        N  0.04660391  0.77303647  0.89067431    -0.45600
C615        C  0.07026400  0.81708359  0.88701431    -0.04900
C616        C  0.07827804  0.82603178  0.83346485    -0.22200
H617        H  0.09849635  0.79550283  0.73067140     0.19600
H618        H  0.02163051  0.67765450  0.85570705     0.18400
H619        H  0.04103056  0.61023137  0.76826928     0.14600
H620        H  0.09614931  0.85678424  0.81560100     0.14500
H621        H  0.11331146  0.71749976  0.67721157     0.32700
H622        H  0.02915002  0.75813228  0.92300538     0.35400
C623        C  0.16936609  0.68888197  0.59144518     0.21000
C624        C  0.18348809  0.73768038  0.59421659    -0.38900
C625        C  0.23357430  0.74655316  0.59889726     0.20000
C626        C  0.26781356  0.70993994  0.59972768     0.22600
C627        C  0.25390448  0.66088503  0.59730063    -0.39400
C628        C  0.20334703  0.65186941  0.59446997     0.21400
N629        N  0.12423947  0.67219513  0.60154552    -0.32600
C630        C  0.13076188  0.62764731  0.62255082    -0.10200
C631        C  0.17825910  0.61127029  0.61070917    -0.29000
N632        N  0.31168142  0.72744458  0.61418806    -0.45600
C633        C  0.30418012  0.77445713  0.62776508    -0.04900
C634        C  0.25673202  0.78829841  0.61362614    -0.22200
H635        H  0.15693242  0.76650022  0.59790825     0.19600
H636        H  0.27986409  0.63200503  0.60427653     0.18400
H637        H  0.19534710  0.57867662  0.62576180     0.14600
H638        H  0.23896753  0.82241366  0.62217755     0.14500
H639        H  0.09238931  0.69292981  0.60259169     0.32700
H640        H  0.34408549  0.70790551  0.61440309     0.35400
C641        C  0.24901657  0.85947761  0.76402861     0.21000
C642        C  0.22070719  0.89426833  0.79141595    -0.38900
C643        C  0.19852952  0.87769926  0.83835566     0.20000
C644        C  0.20622216  0.83083376  0.85562396     0.22600
C645        C  0.23168039  0.79640058  0.82738458    -0.39400
C646        C  0.25156476  0.81215581  0.78093219     0.21400
N647        N  0.27545590  0.86481140  0.71975310    -0.32600
C648        C  0.29431815  0.81988393  0.70898625    -0.10200
C649        C  0.27708073  0.78632887  0.74538847    -0.29000
N650        N  0.17762625  0.82005094  0.89538467    -0.45600
C651        C  0.14805427  0.85854642  0.90438206    -0.04900
C652        C  0.16118383  0.89662912  0.86995926    -0.22200
H653        H  0.21464572  0.93028896  0.77603897     0.19600
H654        H  0.23336310  0.75893929  0.83973242     0.18400
H655        H  0.28645628  0.74841456  0.74798982     0.14600
H656        H  0.14080332  0.92955458  0.86298759     0.14500
H657        H  0.27975305  0.89717920  0.69939850     0.32700
H658        H  0.17292881  0.78461446  0.90916562     0.35400
C659        C  0.19885201  0.62348181  0.76485015     0.21000
C660        C  0.22877857  0.65572163  0.79052969    -0.38900
C661        C  0.24703496  0.64008821  0.83743094     0.20000
C662        C  0.23768968  0.59492910  0.85818036     0.22600
C663        C  0.20396001  0.56277115  0.83348944    -0.39400
C664        C  0.18422268  0.57936452  0.78517441     0.21400
N665        N  0.17602420  0.63382221  0.72118602    -0.32600
C666        C  0.14342155  0.59797553  0.71185628    -0.10200
C667        C  0.14740147  0.56222710  0.75138619    -0.29000
N668        N  0.26352382  0.58951310  0.90297031    -0.45600
C669        C  0.28911576  0.63205518  0.90934263    -0.04900
C670        C  0.27659861  0.66459698  0.87003051    -0.22200
H671        H  0.23626992  0.69136685  0.77509883     0.19600
H672        H  0.19343852  0.52843895  0.85076137     0.18400
H673        H  0.12424358  0.53075979  0.75703679     0.14600
H674        H  0.28888995  0.70151068  0.86469159     0.14500
H675        H  0.17948439  0.66691784  0.70149586     0.32700
H676        H  0.26231582  0.55954644  0.92780436     0.35400
C677        C  0.15145272  0.75297408  0.00936626     0.21000
C678        C  0.16729303  0.70481094  0.00804725    -0.38900
C679        C  0.21745094  0.69775772  0.01347579     0.20000
C680        C  0.25002113  0.73565560  0.01865120     0.22600
C681        C  0.23391822  0.78392985  0.02288821    -0.39400
C682        C  0.18304973  0.79096779  0.01919499     0.21400
N683        N  0.11015238  0.76909584  0.98752433    -0.32600
C684        C  0.11565437  0.81777039  0.98058206    -0.10200
C685        C  0.15820022  0.83287691  0.00732026    -0.29000
N686        N  0.29591981  0.72030239  0.00966258    -0.45600
C687        C  0.29184192  0.67328560  0.99424798    -0.04900
C688        C  0.24377698  0.65723133  0.00218425    -0.22200
H689        H  0.14311482  0.67547415  0.99690121     0.19600
H690        H  0.25928322  0.81413931  0.02343739     0.18400
H691        H  0.17526359  0.86829681  0.00405587     0.14600
H692        H  0.22818102  0.62281015  0.99063925     0.14500
H693        H  0.08528534  0.74539582  0.97132437     0.32700
H694        H  0.32740705  0.74129353  0.01286378     0.35400
C695        C  0.39181462  0.76928713  0.78394283     0.21000
C696        C  0.38707559  0.77632226  0.83785288    -0.38900
C697        C  0.38623223  0.73401646  0.86849899     0.20000
C698        C  0.39222013  0.68862503  0.84722425     0.22600
C699        C  0.39161613  0.68153373  0.79323698    -0.39400
C700        C  0.39049042  0.72361401  0.76262500     0.21400
N701        N  0.38566908  0.80298014  0.74683660    -0.32600
C702        C  0.37174180  0.77898490  0.70285487    -0.10200
C703        C  0.37786202  0.72876609  0.71117246    -0.29000
N704        N  0.38458617  0.65413328  0.88297441    -0.45600
C705        C  0.36430880  0.67645745  0.92485644    -0.04900
C706        C  0.36806801  0.72720108  0.91801347    -0.22200
H707        H  0.38016491  0.81180712  0.85415749     0.19600
H708        H  0.38843796  0.64569344  0.77643660     0.18400
H709        H  0.36546592  0.69829078  0.68911374     0.14600
H710        H  0.35033756  0.75605980  0.93845802     0.14500
H711        H  0.38032342  0.83989599  0.75413975     0.32700
H712        H  0.38201432  0.61710516  0.87455062     0.35400
C713        C  0.67173210  0.02456239  0.73588089     0.21000
C714        C  0.72145893  0.02776252  0.74928997    -0.38900
C715        C  0.73261030  0.02540055  0.80277405     0.20000
C716        C  0.69764741  0.01594748  0.84030126     0.22600
C717        C  0.64803318  0.01130626  0.82671872    -0.39400
C718        C  0.63638812  0.01805414  0.77367516     0.21400
N719        N  0.65180274  0.04317583  0.69211243    -0.32600
C720        C  0.60547144  0.05652188  0.70402631    -0.10200
C721        C  0.59345566  0.03563582  0.75280188    -0.29000
N722        N  0.71472673  0.02743091  0.88805430    -0.45600
C723        C  0.75793757  0.05087397  0.88070100    -0.04900
C724        C  0.77189348  0.04578544  0.82821911    -0.22200
H725        H  0.74833520  0.03996549  0.72117941     0.19600
H726        H  0.61987792  0.01111267  0.85630751     0.18400
H727        H  0.56073061  0.04258808  0.77520521     0.14600
H728        H  0.80255714  0.06332023  0.80920449     0.14500
H729        H  0.67005488  0.04927996  0.65707518     0.32700
H730        H  0.69578127  0.02317165  0.92302353     0.35400
C731        C  0.63538385  0.21841237  0.64545926     0.21000
C732        C  0.63565324  0.26950445  0.64696532    -0.38900
C733        C  0.68206302  0.29175563  0.64589077     0.20000
C734        C  0.72432471  0.26531381  0.64146204     0.22600
C735        C  0.72416276  0.21445082  0.64577823    -0.39400
C736        C  0.67792978  0.19234310  0.64849530     0.21400
N737        N  0.59648421  0.18852983  0.64742058    -0.32600
C738        C  0.61347449  0.14280022  0.65728128    -0.10200
C739        C  0.66513589  0.14489789  0.65803720    -0.29000
N740        N  0.76349514  0.29465179  0.64231926    -0.45600
C741        C  0.74749550  0.33982897  0.65575009    -0.04900
C742        C  0.69579142  0.33921558  0.65499167    -0.22200
H743        H  0.60233249  0.29030311  0.65018380     0.19600
H744        H  0.75761480  0.19370305  0.64809057     0.18400
H745        H  0.69185789  0.11917756  0.67096881     0.14600
H746        H  0.66991784  0.36574293  0.66754804     0.14500
H747        H  0.56011717  0.19970830  0.64701659     0.32700
H748        H  0.79963815  0.28260979  0.64388636     0.35400
C749        C  0.82296323  0.26997803  0.77707760     0.21000
C750        C  0.85094752  0.23142881  0.80000852    -0.38900
C751        C  0.82406829  0.19597311  0.82967015     0.20000
C752        C  0.77387572  0.19807240  0.83163312     0.22600
C753        C  0.74737238  0.23709414  0.81225726    -0.39400
C754        C  0.77368312  0.27290743  0.78676229     0.21400
N755        N  0.83639384  0.30638931  0.74336919    -0.32600
C756        C  0.79458395  0.33242892  0.73340624    -0.10200
C757        C  0.75601100  0.31279403  0.76241357    -0.29000
N758        N  0.75502665  0.16025552  0.85705001    -0.45600
C759        C  0.79228389  0.13426082  0.87808005    -0.04900
C760        C  0.83693948  0.15525220  0.86059645    -0.22200
H761        H  0.89011661  0.22912798  0.79512135     0.19600
H762        H  0.70847458  0.23992956  0.81672829     0.18400
H763        H  0.71801173  0.32360345  0.76117002     0.14600
H764        H  0.87352727  0.14319510  0.86937380     0.14500
H765        H  0.87069368  0.31105591  0.72641514     0.32700
H766        H  0.71766806  0.15380939  0.86139568     0.35400
C767        C  0.58674070  0.25883120  0.82349064     0.21000
C768        C  0.60605151  0.21356512  0.81471756    -0.38900
C769        C  0.57693532  0.18230928  0.78724894     0.20000
C770        C  0.53321796  0.19544222  0.76512535     0.22600
C771        C  0.51110124  0.24023433  0.77816178    -0.39400
C772        C  0.53876785  0.27007054  0.81204546     0.21400
N773        N  0.60675863  0.29083810  0.85489492    -0.32600
C774        C  0.56956068  0.31783967  0.87296276    -0.10200
C775        C  0.52645777  0.30844184  0.84471141    -0.29000
N776        N  0.52088696  0.16292067  0.72798075    -0.45600
C777        C  0.55765690  0.12925050  0.72812862    -0.04900
C778        C  0.59101373  0.13995837  0.76748019    -0.22200
H779        H  0.64074099  0.20218628  0.83038326     0.19600
H780        H  0.47601503  0.25114776  0.76302318     0.18400
H781        H  0.49044613  0.32321049  0.85141420     0.14600
H782        H  0.62747035  0.12534286  0.77230675     0.14500
H783        H  0.64197100  0.28847353  0.87047632     0.32700
H784        H  0.49315684  0.16721754  0.70049609     0.35400
C785        C  0.65906930  0.25677294  0.98130859     0.21000
C786        C  0.70701271  0.23899465  0.98714063    -0.38900
C787        C  0.71315849  0.18856854  0.98048997     0.20000
C788        C  0.67528216  0.15920331  0.96469176     0.22600
C789        C  0.62765394  0.17715253  0.95783193    -0.39400
C790        C  0.62095395  0.22672254  0.96789127     0.21400
N791        N  0.64451978  0.30348075  0.98140945    -0.32600
C792        C  0.59854608  0.30439875  0.96136899    -0.10200
C793        C  0.58130239  0.25605755  0.95829641    -0.29000
N794        N  0.69227763  0.11641356  0.94767603    -0.45600
C795        C  0.74199000  0.11717332  0.95322569    -0.04900
C796        C  0.75530914  0.16120687  0.97735713    -0.22200
H797        H  0.73757034  0.26289766  0.99491941     0.19600
H798        H  0.59852960  0.15473528  0.94249686     0.18400
H799        H  0.54752262  0.24412539  0.94046523     0.14600
H800        H  0.79207327  0.17537892  0.98103845     0.14500
H801        H  0.66443395  0.33231402  0.99654351     0.32700
H802        H  0.67069457  0.09415873  0.92465380     0.35400
C803        C  0.73614505  0.43378957  0.80055355     0.21000
C804        C  0.72979163  0.42220442  0.85336673    -0.38900
C805        C  0.68153219  0.41894762  0.87119424     0.20000
C806        C  0.64226847  0.43069447  0.84022124     0.22600
C807        C  0.64859790  0.44358861  0.78734405    -0.39400
C808        C  0.69687856  0.44274684  0.76823267     0.21400
N809        N  0.77521906  0.42094701  0.77245931    -0.32600
C810        C  0.75966596  0.41391201  0.72261044    -0.10200
C811        C  0.71271091  0.43378843  0.71783106    -0.29000
N812        N  0.60092317  0.41318092  0.86162163    -0.45600
C813        C  0.61344672  0.38575107  0.90416352    -0.04900
C814        C  0.66421790  0.39061535  0.91155425    -0.22200
H815        H  0.75977253  0.40815200  0.87639269     0.19600
H816        H  0.61770436  0.44576577  0.76114886     0.18400
H817        H  0.69053324  0.43624893  0.68328860     0.14600
H818        H  0.68896388  0.36990722  0.93478505     0.14500
H819        H  0.80755686  0.40757438  0.78865998     0.32700
H820        H  0.56713441  0.41254187  0.84271223     0.35400
C821        C  0.25985279  0.74234809  0.47840673     0.21000
C822        C  0.25825549  0.69158517  0.47165469    -0.38900
C823        C  0.21137432  0.67026694  0.47013848     0.20000
C824        C  0.16957415  0.69715199  0.47571968     0.22600
C825        C  0.17102448  0.74807911  0.47791179    -0.39400
C826        C  0.21777937  0.76936436  0.47917405     0.21400
N827        N  0.29908289  0.77155941  0.47295659    -0.32600
C828        C  0.28224694  0.81747727  0.46307142    -0.10200
C829        C  0.23105962  0.81690667  0.47094752    -0.29000
N830        N  0.12974294  0.66896988  0.47065125    -0.45600
C831        C  0.14505634  0.62434716  0.45455319    -0.04900
C832        C  0.19683635  0.62405661  0.45626425    -0.22200
H833        H  0.29102182  0.67059052  0.46515830     0.19600
H834        H  0.13809553  0.76970086  0.47662528     0.18400
H835        H  0.20368996  0.84292557  0.46153416     0.14600
H836        H  0.22254179  0.59841001  0.44140541     0.14500
H837        H  0.33429941  0.75910296  0.46496803     0.32700
H838        H  0.09388720  0.68183223  0.46924571     0.35400
C839        C  0.11348796  0.77362449  0.28381465     0.21000
C840        C  0.14190111  0.73689726  0.30472528    -0.38900
C841        C  0.11722554  0.69801123  0.32721250     0.20000
C842        C  0.06728095  0.69649309  0.33291229     0.22600
C843        C  0.03766816  0.73273217  0.30792180    -0.39400
C844        C  0.06334087  0.77105270  0.28120021     0.21400
N845        N  0.13101308  0.81207065  0.25846817    -0.32600
C846        C  0.09354235  0.83366994  0.23297452    -0.10200
C847        C  0.04948783  0.80961711  0.24762976    -0.29000
N848        N  0.05466734  0.65800919  0.36434549    -0.45600
C849        C  0.09765849  0.63489920  0.37672932    -0.04900
C850        C  0.13627929  0.65831668  0.35109996    -0.22200
H851        H  0.18105150  0.73891211  0.30263664     0.19600
H852        H  0.99819148  0.73102221  0.30873999     0.18400
H853        H  0.01308911  0.81673109  0.23335322     0.14600
H854        H  0.17468164  0.64970446  0.35418300     0.14500
H855        H  0.16810020  0.82049683  0.25477264     0.32700
H856        H  0.01968886  0.64966671  0.37780248     0.35400
C857        C  0.25677138  0.93045475  0.32635121     0.21000
C858        C  0.24804715  0.93851025  0.27295956    -0.38900
C859        C  0.19880520  0.94249242  0.25794630     0.20000
C860        C  0.16147127  0.93849992  0.29385651     0.22600
C861        C  0.17059877  0.93622024  0.34774676    -0.39400
C862        C  0.21978707  0.93215295  0.36266098     0.21400
N863        N  0.29593880  0.90805807  0.34685478    -0.32600
C864        C  0.28369867  0.89313170  0.39600135    -0.10200
C865        C  0.23815619  0.91308628  0.40843847    -0.29000
N866        N  0.12048406  0.92314630  0.27022873    -0.45600
C867        C  0.13219270  0.91394651  0.21955769    -0.04900
C868        C  0.17873624  0.93290813  0.20965549    -0.22200
H869        H  0.27661107  0.93349509  0.24436437     0.19600
H870        H  0.14138719  0.92958714  0.37529902     0.18400
H871        H  0.21892482  0.91268388  0.44488769     0.14600
H872        H  0.19814972  0.93312692  0.17306020     0.14500
H873        H  0.32665324  0.89734496  0.32573079     0.32700
H874        H  0.08919332  0.91117766  0.28978789     0.35400
C875        C  0.30771721  0.67819967  0.28769129     0.21000
C876        C  0.27886153  0.70761485  0.31782752    -0.38900
C877        C  0.29952361  0.75096636  0.33227644     0.20000
C878        C  0.34800769  0.76206509  0.32461433     0.22600
C879        C  0.37695830  0.73360710  0.29089354    -0.39400
C880        C  0.35416311  0.69097889  0.27171554     0.21400
N881        N  0.29061901  0.64085955  0.26153514    -0.32600
C882        C  0.32429777  0.62952234  0.22517686    -0.10200
C883        C  0.36595875  0.65937998  0.23139798    -0.29000
N884        N  0.36038025  0.80111201  0.35361273    -0.45600
C885        C  0.31795455  0.81449493  0.37742620    -0.04900
C886        C  0.27893079  0.78636813  0.36029848    -0.22200
H887        H  0.24241642  0.69712409  0.32891531     0.19600
H888        H  0.41256743  0.74540194  0.27805206     0.18400
H889        H  0.39702807  0.66267283  0.20564391     0.14600
H890        H  0.24114935  0.78769298  0.37248474     0.14500
H891        H  0.25414104  0.62948848  0.26270217     0.32700
H892        H  0.39518953  0.81594240  0.35865206     0.35400
C893        C  0.15514353  0.52635586  0.30877546     0.21000
C894        C  0.16131536  0.52755956  0.25429971    -0.38900
C895        C  0.20973469  0.52558460  0.23611642     0.20000
C896        C  0.24862617  0.52146486  0.26995242     0.22600
C897        C  0.24198036  0.51548817  0.32391177    -0.39400
C898        C  0.19384858  0.51886252  0.34217977     0.21400
N899        N  0.11737701  0.54534995  0.33506765    -0.32600
C900        C  0.13279150  0.55321822  0.38493923    -0.10200
C901        C  0.17839897  0.53135434  0.39154098    -0.29000
N902        N  0.28923360  0.53917685  0.24753824    -0.45600
C903        C  0.27622361  0.55883495  0.20055291    -0.04900
C904        C  0.22805444  0.54446354  0.19002580    -0.22200
H905        H  0.13169776  0.53818179  0.22877768     0.19600
H906        H  0.27264224  0.51670221  0.35048803     0.18400
H907        H  0.19989017  0.52860962  0.42654190     0.14600
H908        H  0.20744850  0.54887886  0.15465826     0.14500
H909        H  0.08588244  0.55945649  0.31777112     0.32700
H910        H  0.32153169  0.54589224  0.26791183     0.35400
C911        C  0.20412717  0.79237430  0.14315646     0.21000
C912        C  0.25154640  0.77275143  0.14474705    -0.38900
C913        C  0.25466186  0.72221622  0.13901673     0.20000
C914        C  0.21368985  0.69347945  0.13690829     0.22600
C915        C  0.16640224  0.71319190  0.13351824    -0.39400
C916        C  0.16355247  0.76405201  0.13449539     0.21400
N917        N  0.19099900  0.83750862  0.15637841    -0.32600
C918        C  0.14101351  0.83935408  0.15476116    -0.10200
C919        C  0.12346886  0.79406461  0.13732080    -0.29000
N920        N  0.22545748  0.64664970  0.14369701    -0.45600
C921        C  0.27511022  0.64428870  0.14907728    -0.04900
C922        C  0.29418516  0.69159470  0.14257857    -0.22200
H923        H  0.28344619  0.79498216  0.15209315     0.19600
H924        H  0.13408234  0.69051333  0.13227648     0.18400
H925        H  0.08579052  0.78201350  0.13774826     0.14600
H926        H  0.33164494  0.70311833  0.14759295     0.14500
H927        H  0.21611661  0.86051693  0.17362864     0.32700
H928        H  0.19858918  0.62089762  0.14936116     0.35400
C929        C  0.15379158  0.42388847  0.80225230     0.21000
C930        C  0.16012715  0.41310027  0.85512484    -0.38900
C931        C  0.20775373  0.41686609  0.87466212     0.20000
C932        C  0.24590698  0.43480594  0.84535421     0.22600
C933        C  0.23912732  0.44718460  0.79221086    -0.39400
C934        C  0.19201071  0.43926927  0.77134563     0.21400
N935        N  0.11724081  0.40669865  0.77293497    -0.32600
C936        C  0.13319834  0.40553385  0.72272190    -0.10200
C937        C  0.17809580  0.43048919  0.72006983    -0.29000
N938        N  0.28870291  0.42142918  0.86712667    -0.45600
C939        C  0.27880536  0.38922328  0.90668614    -0.04900
C940        C  0.22760541  0.38849794  0.91343214    -0.22200
H941        H  0.13186963  0.39429680  0.87685443     0.19600
H942        H  0.27004293  0.45436500  0.76704682     0.18400
H943        H  0.20035809  0.43713798  0.68610432     0.14600
H944        H  0.20464087  0.36292902  0.93314211     0.14500
H945        H  0.08622131  0.38950478  0.78795399     0.32700
H946        H  0.32232027  0.42488494  0.84822902     0.35400
C947        C  0.23531367  0.25394888  0.96983328     0.21000
C948        C  0.18765756  0.23684017  0.97942658    -0.38900
C949        C  0.17974735  0.18693575  0.97130751     0.20000
C950        C  0.21539109  0.15755661  0.95104621     0.22600
C951        C  0.26214933  0.17523390  0.93863281    -0.39400
C952        C  0.27063004  0.22433974  0.94943394     0.21400
N953        N  0.25188409  0.29986163  0.97350456    -0.32600
C954        C  0.29544090  0.30150384  0.94822202    -0.10200
C955        C  0.30971591  0.25343549  0.93719349    -0.29000
N956        N  0.19661674  0.11450170  0.93733852    -0.45600
C957        C  0.14789331  0.11507320  0.94935960    -0.04900
C958        C  0.13745777  0.15953374  0.97393554    -0.22200
H959        H  0.15863200  0.26083261  0.99158390     0.19600
H960        H  0.28923446  0.15287837  0.91966879     0.18400
H961        H  0.34208635  0.24096496  0.91756588     0.14600
H962        H  0.10146406  0.17363442  0.98240944     0.14500
H963        H  0.23511407  0.32769606  0.99412678     0.32700
H964        H  0.21571382  0.09196922  0.91238843     0.35400
C965        C  0.06804585  0.19579971  0.83310812     0.21000
C966        C  0.04035124  0.23390333  0.80898772    -0.38900
C967        C  0.06675743  0.26564617  0.77440886     0.20000
C968        C  0.11641694  0.26026404  0.76814736     0.22600
C969        C  0.14264483  0.22223327  0.78976457    -0.39400
C970        C  0.11663877  0.19039424  0.82090584     0.21400
N971        N  0.05464361  0.16094093  0.86870791    -0.32600
C972        C  0.09573577  0.13340681  0.87718264    -0.10200
C973        C  0.13382875  0.15103033  0.84617873    -0.29000
N974        N  0.13528392  0.29509619  0.73840454    -0.45600
C975        C  0.09833486  0.32304410  0.72009932    -0.04900
C976        C  0.05401948  0.30586477  0.74270930    -0.22200
H977        H  0.00174178  0.23846377  0.81640113     0.19600
H978        H  0.18115478  0.21729926  0.78270322     0.18400
H979        H  0.17080037  0.13747044  0.84372471     0.14600
H980        H  0.01797637  0.32119694  0.73825233     0.14500
H981        H  0.02053965  0.15713060  0.88636679     0.32700
H982        H  0.17249807  0.29951865  0.73133643     0.35400
C983        C  0.30174534  0.21256279  0.75615390     0.21000
C984        C  0.28162620  0.25618921  0.76970315    -0.38900
C985        C  0.31129250  0.28616038  0.79805680     0.20000
C986        C  0.35777134  0.27362318  0.81399245     0.22600
C987        C  0.37964189  0.23009700  0.79681217    -0.39400
C988        C  0.35006593  0.20086425  0.76467584     0.21400
N989        N  0.27910056  0.17939809  0.72864596    -0.32600
C990        C  0.31423002  0.14928609  0.71168390    -0.10200
C991        C  0.35927437  0.15953655  0.73547282    -0.29000
N992        N  0.37099897  0.30143856  0.85472217    -0.45600
C993        C  0.33118964  0.32950588  0.86511570    -0.04900
C994        C  0.29502702  0.32208974  0.82801429    -0.22200
H995        H  0.24433985  0.26548563  0.76068377     0.19600
H996        H  0.41503125  0.21827859  0.81024192     0.18400
H997        H  0.39406260  0.14199174  0.72913987     0.14600
H998        H  0.25706341  0.33277439  0.82983657     0.14500
H999        H  0.24271318  0.18093764  0.71635970     0.32700
H1000       H  0.40098026  0.29557200  0.87908848     0.35400
C1001       C  0.17237974  0.27452665  0.61224114     0.21000
C1002       C  0.17385984  0.22413465  0.60290048    -0.38900
C1003       C  0.22030220  0.20241460  0.60469160     0.20000
C1004       C  0.26181154  0.22883469  0.61527262     0.22600
C1005       C  0.26006116  0.27851314  0.62718177    -0.39400
C1006       C  0.21374399  0.30017977  0.62542760     0.21400
N1007       N  0.13233193  0.30153709  0.62052692    -0.32600
C1008       C  0.14712476  0.34301229  0.64492721    -0.10200
C1009       C  0.19867095  0.34378125  0.64597065    -0.29000
N1010       N  0.29976777  0.19904675  0.62296599    -0.45600
C1011       C  0.28147383  0.15279986  0.62450428    -0.04900
C1012       C  0.23354067  0.15396100  0.60538323    -0.22200
H1013       H  0.14092358  0.20293430  0.59749337     0.19600
H1014       H  0.29191115  0.29793942  0.64100156     0.18400
H1015       H  0.22299353  0.36633613  0.66800027     0.14600
H1016       H  0.20998644  0.12372652  0.59641192     0.14500
H1017       H  0.09647407  0.28853681  0.61873122     0.32700
H1018       H  0.33377367  0.21028782  0.63703874     0.35400
C1019       C  0.18123391  0.02132687  0.83202501     0.21000
C1020       C  0.22985461  0.02177887  0.81408187    -0.38900
C1021       C  0.23706679  0.03762359  0.76242616     0.20000
C1022       C  0.19890452  0.05248842  0.73132951     0.22600
C1023       C  0.15032225  0.04900210  0.74796059    -0.39400
C1024       C  0.14286820  0.03286390  0.79918147     0.21400
N1025       N  0.16732198  0.02624646  0.88211319    -0.32600
C1026       C  0.12277434  0.04774409  0.88076292    -0.10200
C1027       C  0.10382509  0.04426731  0.83009439    -0.29000
N1028       N  0.21507669  0.07951204  0.69107966    -0.45600
C1029       C  0.26473320  0.08113836  0.69461559    -0.04900
C1030       C  0.27912822  0.05389336  0.73868956    -0.22200
H1031       H  0.26026978  0.01704050  0.84053250     0.19600
H1032       H  0.12092027  0.06479427  0.72538341     0.18400
H1033       H  0.07105608  0.06195132  0.81598723     0.14600
H1034       H  0.31536077  0.05278803  0.75549259     0.14500
H1035       H  0.18946491  0.02128263  0.91476776     0.32700
H1036       H  0.19141923  0.10058253  0.66926428     0.35400
C1037       C  0.06638402  0.19567586  0.26953985     0.21000
C1038       C  0.03751682  0.22604250  0.30294927    -0.38900
C1039       C  0.06361982  0.26200574  0.33267979     0.20000
C1040       C  0.11380623  0.26478777  0.32942000     0.22600
C1041       C  0.14130846  0.23718258  0.29534170    -0.39400
C1042       C  0.11586895  0.20359498  0.26587210     0.21400
N1043       N  0.05344957  0.15766899  0.23771599    -0.32600
C1044       C  0.09585770  0.14278823  0.21381268    -0.10200
C1045       C  0.13424384  0.17256905  0.23051881    -0.29000
N1046       N  0.13198720  0.29802325  0.36132629    -0.45600
C1047       C  0.09448379  0.32140220  0.38478799    -0.04900
C1048       C  0.05010492  0.29908613  0.36822575    -0.22200
H1049       H  0.99828010  0.22201462  0.30569015     0.19600
H1050       H  0.18055896  0.24143459  0.29221822     0.18400
H1051       H  0.17179066  0.17259458  0.21779582     0.14600
H1052       H  0.01339825  0.30857645  0.37976563     0.14500
H1053       H  0.01847190  0.14328200  0.23280750     0.32700
H1054       H  0.16918170  0.30563306  0.36577504     0.35400
C1055       C  0.23144099  0.21219275  0.48742418     0.21000
C1056       C  0.18179967  0.22253793  0.48609127    -0.38900
C1057       C  0.16985579  0.27135752  0.49035104     0.20000
C1058       C  0.20455494  0.30761198  0.49324419     0.22600
C1059       C  0.25471604  0.29694713  0.49722802    -0.39400
C1060       C  0.26669994  0.24740572  0.49391804     0.21400
N1061       N  0.25140637  0.16963762  0.47614830    -0.32600
C1062       C  0.30007096  0.17753814  0.47070380    -0.10200
C1063       C  0.31113605  0.22477120  0.48738078    -0.29000
N1064       N  0.18439167  0.35053644  0.48063084    -0.45600
C1065       C  0.13789055  0.34046255  0.46523733    -0.04900
C1066       C  0.12636669  0.29243905  0.47921514    -0.22200
H1067       H  0.15460244  0.19487956  0.47834227     0.19600
H1068       H  0.28238688  0.32507959  0.49700094     0.18400
H1069       H  0.34644813  0.24146919  0.49253431     0.14600
H1070       H  0.09332400  0.27261341  0.46979634     0.14500
H1071       H  0.23135353  0.13851165  0.46782858     0.32700
H1072       H  0.20176093  0.38396854  0.48326720     0.35400
C1073       C  0.24054474  0.08270103  0.34865129     0.21000
C1074       C  0.19836796  0.05627543  0.33280985    -0.38900
C1075       C  0.18633748  0.05920092  0.27879124     0.20000
C1076       C  0.21664566  0.08308147  0.24437538     0.22600
C1077       C  0.25480213  0.11267257  0.26113168    -0.39400
C1078       C  0.26354969  0.11305576  0.31412592     0.21400
N1079       N  0.26069822  0.08808937  0.39670555    -0.32600
C1080       C  0.29499849  0.12443016  0.39224351    -0.10200
C1081       C  0.29304444  0.14293896  0.34157031    -0.29000
N1082       N  0.19607033  0.08779515  0.19785576    -0.45600
C1083       C  0.14877832  0.07272808  0.20143195    -0.04900
C1084       C  0.14262734  0.05142921  0.25149688    -0.22200
H1085       H  0.17491373  0.03823789  0.36073908     0.19600
H1086       H  0.27391455  0.13700303  0.23480969     0.18400
H1087       H  0.30970794  0.17541456  0.32627222     0.14600
H1088       H  0.10811871  0.04140873  0.26910486     0.14500
H1089       H  0.25147900  0.06829187  0.43005106     0.32700
H1090       H  0.21165739  0.11198422  0.17168196     0.35400
C1091       C  0.39734807  0.25652929  0.26392732     0.21000
C1092       C  0.40312161  0.26350178  0.31738240    -0.38900
C1093       C  0.40248830  0.22154308  0.34809742     0.20000
C1094       C  0.40277052  0.17550107  0.32695187     0.22600
C1095       C  0.39204360  0.16901896  0.27369663    -0.39400
C1096       C  0.38592249  0.21167148  0.24429979     0.21400
N1097       N  0.38664272  0.29139615  0.22971502    -0.32600
C1098       C  0.35844329  0.27086437  0.19252111    -0.10200
C1099       C  0.35827490  0.22004505  0.20030651    -0.29000
N1100       N  0.39255048  0.14260569  0.36399813    -0.45600
C1101       C  0.37362190  0.16798456  0.40466085    -0.04900
C1102       C  0.38400023  0.21748409  0.39743780    -0.22200
H1103       H  0.40110195  0.29936792  0.33431007     0.19600
H1104       H  0.38110037  0.13396301  0.25870093     0.18400
H1105       H  0.33482933  0.19275105  0.18372273     0.14600
H1106       H  0.36990035  0.24871562  0.41687599     0.14500
H1107       H  0.39527432  0.32791793  0.23416852     0.32700
H1108       H  0.38572454  0.10593983  0.35651851     0.35400
C1109       C  0.22114086  0.35341810  0.24075115     0.21000
C1110       C  0.17237237  0.36446567  0.25370533    -0.38900
C1111       C  0.16545247  0.39211595  0.29925293     0.20000
C1112       C  0.20369120  0.40181697  0.33219054     0.22600
C1113       C  0.25263710  0.39545340  0.31642618    -0.39400
C1114       C  0.25949924  0.37234331  0.26818792     0.21400
N1115       N  0.23737307  0.32321197  0.20347356    -0.32600
C1116       C  0.28732892  0.32724631  0.20153475    -0.10200
C1117       C  0.30146436  0.35818971  0.24286672    -0.29000
N1118       N  0.18723936  0.40730251  0.38129361    -0.45600
C1119       C  0.13781935  0.39938340  0.38085006    -0.04900
C1120       C  0.12330418  0.39844462  0.32781351    -0.22200
H1121       H  0.14189075  0.34960234  0.23211537     0.19600
H1122       H  0.28302986  0.40379979  0.34183078     0.18400
H1123       H  0.33710581  0.37086254  0.25375507     0.14600
H1124       H  0.08745812  0.38802067  0.31386892     0.14500
H1125       H  0.21434599  0.29901640  0.18444806     0.32700
H1126       H  0.21057089  0.41252624  0.41237093     0.35400
C1127       C  0.22516092  0.25028711  0.09008656     0.21000
C1128       C  0.17464438  0.24372313  0.09498228    -0.38900
C1129       C  0.15800766  0.19569618  0.09303850     0.20000
C1130       C  0.18893007  0.15684680  0.08450359     0.22600
C1131       C  0.23980633  0.16353532  0.08050685    -0.39400
C1132       C  0.25661816  0.21150408  0.08563141     0.21400
N1133       N  0.24971005  0.29071050  0.10234987    -0.32600
C1134       C  0.29470521  0.27589418  0.11726169    -0.10200
C1135       C  0.30217551  0.22830210  0.09975025    -0.29000
N1136       N  0.16649301  0.11493989  0.09723884    -0.45600
C1137       C  0.12557444  0.12817500  0.12340354    -0.04900
C1138       C  0.11582483  0.17738904  0.11390595    -0.22200
H1139       H  0.15080166  0.27329927  0.10579423     0.19600
H1140       H  0.26467880  0.13306277  0.08109239     0.18400
H1141       H  0.33496704  0.20674376  0.10212110     0.14600
H1142       H  0.08759671  0.19907845  0.13187267     0.14500
H1143       H  0.23444095  0.32506027  0.10756627     0.32700
H1144       H  0.18310235  0.08082388  0.09837877     0.35400
loop_ 
_geom_bond_atom_site_label_1 
_geom_bond_atom_site_label_2 
_geom_bond_distance 
_geom_bond_site_symmetry_2 
_ccdc_geom_bond_type 
C1           C17   1.532       .  S
C1         C1098   1.542       .  S
C1         C1116   1.600       .  S
C1         C1134   1.544       .  S
C2           C77   1.513       .  S
C2         C1062   1.533       .  S
C2         C1080   1.582       .  S
C2         C1101   1.549       .  S
C3          C155   1.542       .  S
C3         C1044   1.581       .  S
C3         C1083   1.564       .  S
C3         C1137   1.551       .  S
C4          C221   1.547       .  S
C4         C1047   1.589       .  S
C4         C1065   1.554       .  S
C4         C1119   1.585       .  S
C5           C83   1.526       .  S
C5          C990   1.504       .  S
C5         C1011   1.560       .  S
C5         C1029   1.572       .  S
C6          C184   1.543       .  S
C6          C957   1.552       .  S
C6          C972   1.574       .  S
C6         C1026   1.555       .  S
C7          C250   1.549       .  S
C7          C936   1.559       .  S
C7          C975   1.572       .  S
C7         C1008   1.554       .  S
C8           C34   1.521       .  S
C8          C939   1.583       .  S
C8          C954   1.562       .  S
C8          C993   1.523       .  S
O9          Zr21   2.378       .  S
O9           C11   1.275       .  A
O10         Zr47   2.489       .  S
O10          C11   1.304       .  A
C11         C217   1.513       .  S
O12         Zr24   2.411       .  S
O12          C14   1.277       .  A
O13         Zr48   2.493       .  S
O13          C14   1.297       .  A
C14          C71   1.530       .  S
O15         Zr24   2.401       .  S
O15          C17   1.279       .  A
O16         Zr47   2.486       .  S
O16          C17   1.302       .  A
O18         Zr21   2.377       .  S
O18          C20   1.269       .  A
O19         Zr48   2.492       .  S
O19          C20   1.298       .  A
C20         C147   1.525       .  S
Zr21         O22   2.434       .  S
Zr21         O23   2.429       .  S
Zr21         O27   2.362       .  S
Zr21         O28   2.371       .  S
Zr21         O51   2.361       .  S
Zr21         O53   2.362       .  S
O22          H65   0.990       .  S
O23          H64   0.990       .  S
O23          H68   0.989       .  S
Zr24         O25   2.437       .  S
Zr24         O26   2.433       .  S
Zr24         O28   2.359       .  S
Zr24         O27   2.362       .  S
Zr24         O52   2.357       .  S
Zr24         O54   2.358       .  S
O25          H66   0.988       .  S
O25          H69   0.990       .  S
O26          H59   0.990       .  S
O27         Zr47   2.385       .  S
O28         Zr48   2.403       .  S
O28          H55   0.964       .  S
O29         Zr41   2.397       .  S
O29          C31   1.276       .  A
O30         Zr48   2.483       .  S
O30          C31   1.303   1_554  A
C31         C149   1.518       .  S
O32         Zr44   2.404       .  S
O32          C34   1.275       .  A
O33         Zr47   2.474   1_556  S
O33          C34   1.294       .  A
O35         Zr44   2.413       .  S
O35          C37   1.282       .  A
O36         Zr48   2.455       .  S
O36          C37   1.297   1_554  A
C37         C141   1.515       .  S
O38         Zr41   2.410       .  S
O38          C40   1.276       .  A
O39         Zr47   2.483   1_556  S
O39          C40   1.298       .  A
C40         C137   1.533       .  S
Zr41         O42   2.438       .  S
Zr41         O43   2.434       .  S
Zr41         O49   2.368       .  S
Zr41         O50   2.355       .  S
Zr41         O53   2.364   1_556  S
Zr41         O51   2.367   1_556  S
O42          H62   0.989       .  S
O42          H67   0.990       .  S
O43          H63   0.990   1_556  S
Zr44         O45   2.434       .  S
Zr44         O46   2.434       .  S
Zr44         O50   2.363       .  S
Zr44         O49   2.368       .  S
Zr44         O54   2.341   1_556  S
Zr44         O52   2.375   1_556  S
O45          H61   0.990       .  S
O46          H60   0.990   1_556  S
O46          H70   0.989       .  S
Zr47         O50   2.401   1_554  S
Zr47         O52   2.407       .  S
Zr47         O53   2.392       .  S
Zr48         O49   2.400   1_554  S
Zr48         O51   2.382       .  S
Zr48         O54   2.389       .  S
O49          H57   0.966       .  S
O52          H56   0.966       .  S
O53          H58   0.965       .  S
C71         C882   1.528       .  S
C71         C903   1.580       .  S
C71         C921   1.564       .  S
C72         C161   1.548       .  S
C72         C846   1.570       .  S
C72         C867   1.557       .  S
C72         C918   1.559       .  S
C73         C227   1.555       .  S
C73         C831   1.562       .  S
C73         C849   1.578       .  S
C73         C900   1.554       .  S
C74          C86   1.538       .  S
C74         C828   1.570       .  S
C74         C864   1.565       .  S
C74         C885   1.525       .  S
O75         Zr87   2.395   1_545  S
O75          C77   1.276       .  A
O76        Zr113   2.476       .  S
O76          C77   1.301       .  A
O78         Zr90   2.395       .  S
O78          C80   1.275       .  A
O79        Zr114   2.479       .  S
O79          C80   1.301       .  A
C80         C142   1.519       .  S
O81         Zr90   2.362   1_545  S
O81          C83   1.273       .  A
O82        Zr113   2.490       .  S
O82          C83   1.301       .  A
O84         Zr87   2.409       .  S
O84          C86   1.275       .  A
O85        Zr114   2.487       .  S
O85          C86   1.296       .  A
Zr87         O88   2.433       .  S
Zr87         O89   2.440       .  S
Zr87         O93   2.356   1_565  S
Zr87         O94   2.371       .  S
Zr87        O117   2.360       .  S
Zr87        O119   2.382   1_565  S
O88         H131   0.990       .  S
O89         H130   0.990   1_565  S
O89         H134   0.990   1_565  S
Zr90         O91   2.442       .  S
Zr90         O92   2.436       .  S
Zr90         O94   2.357       .  S
Zr90         O93   2.358   1_565  S
Zr90        O118   2.373   1_565  S
Zr90        O120   2.357       .  S
O91         H132   0.990       .  S
O91         H135   0.990       .  S
O92         H125   0.990       .  S
O93        Zr113   2.387       .  S
O94        Zr114   2.403       .  S
O94         H121   0.966       .  S
O95        Zr107   2.406       .  S
O95          C97   1.275       .  A
O96        Zr114   2.479       .  S
O96          C97   1.295       .  A
C97         C145   1.524       .  S
O98        Zr110   2.404   1_545  S
O98         C100   1.272       .  A
O99        Zr113   2.502       .  S
O99         C100   1.295       .  A
C100        C139   1.535       .  S
O101       Zr110   2.411       .  S
O101        C103   1.279       .  A
O102       Zr114   2.464       .  S
O102        C103   1.298       .  A
C103        C151   1.519       .  S
O104       Zr107   2.401   1_545  S
O104        C106   1.280       .  A
O105       Zr113   2.503       .  S
O105        C106   1.305       .  A
C106        C215   1.542       .  S
Zr107       O108   2.435       .  S
Zr107       O109   2.434       .  S
Zr107       O115   2.369       .  S
Zr107       O116   2.340   1_565  S
Zr107       O119   2.367   1_565  S
Zr107       O117   2.356       .  S
O108        H128   0.988       .  S
O108        H133   0.990       .  S
O109        H129   0.990   1_565  S
Zr110       O111   2.428       .  S
Zr110       O112   2.431       .  S
Zr110       O116   2.352   1_565  S
Zr110       O115   2.355       .  S
Zr110       O120   2.361       .  S
Zr110       O118   2.378   1_565  S
O111        H127   0.990       .  S
O112        H126   0.989       .  S
O112        H136   0.990       .  S
Zr113       O116   2.373       .  S
Zr113       O118   2.420       .  S
Zr113       O119   2.410       .  S
Zr114       O115   2.397       .  S
Zr114       O117   2.399       .  S
Zr114       O120   2.384       .  S
O115        H123   0.964       .  S
O118        H122   0.965       .  S
O119        H124   0.967       .  S
C137        C774   1.519       .  S
C137        C792   1.570       .  S
C137        C813   1.568       .  S
C138        C241   1.549       .  S
C138        C741   1.556       .  S
C138        C756   1.575       .  S
C138        C810   1.562       .  S
C139        C720   1.584       .  S
C139        C738   1.562       .  S
C139        C777   1.531       .  S
C140        C175   1.557       .  S
C140        C723   1.558       .  S
C140        C759   1.576       .  S
C140        C795   1.559       .  S
C141        C669   1.563       .  S
C141        C687   1.538       .  S
C141        C705   1.542       .  S
C142        C633   1.539       .  S
C142        C648   1.566       .  S
C142        C702   1.544       .  S
C143        C244   1.548       .  S
C143        C612   1.594       .  S
C143        C630   1.554       .  S
C143        C666   1.534       .  S
C144        C178   1.555       .  S
C144        C615   1.608       .  S
C144        C651   1.550       .  S
C144        C684   1.559       .  S
C145        C558   1.521       .  S
C145        C576   1.585       .  S
C145        C594   1.568       .  S
C146        C224   1.549       .  S
C146        C522   1.558       .  S
C146        C540   1.574       .  S
C146        C597   1.557       .  S
C147        C504   1.563       .  S
C147        C525   1.565       .  S
C147        C561   1.512       .  S
C148        C158   1.554       .  S
C148        C507   1.558       .  S
C148        C543   1.579       .  S
C148        C579   1.552       .  S
C149        C450   1.550       .  S
C149        C468   1.570       .  S
C149        C486   1.536       .  S
C150        C247   1.547       .  S
C150        C417   1.555       .  S
C150        C432   1.592       .  S
C150        C471   1.535       .  S
C151        C396   1.559       .  S
C151        C414   1.536       .  S
C151        C453   1.546       .  S
C152        C181   1.554       .  S
C152        C399   1.552       .  S
C152        C435   1.600       .  S
C152        C489   1.554       .  S
O153       Zr165   2.447   1_455  S
O153        C155   1.285       .  A
O154       Zr191   2.508   1_545  S
O154        C155   1.310       .  A
O156       Zr168   2.453       .  S
O156        C158   1.287       .  A
O157       Zr192   2.525       .  S
O157        C158   1.311       .  A
O159       Zr168   2.448   1_455  S
O159        C161   1.286       .  A
O160       Zr191   2.510       .  S
O160        C161   1.309       .  A
O162       Zr165   2.437       .  S
O162        C164   1.283       .  A
O163       Zr192   2.532   1_545  S
O163        C164   1.315       .  A
C164        C216   1.550       .  S
Zr165       O166   2.433       .  S
Zr165       O167   2.436       .  S
Zr165       O171   2.375   1_545  S
Zr165       O172   2.384   1_545  S
Zr165       O195   2.388       .  S
Zr165       O197   2.381       .  S
O166        H209   0.991       .  S
O167        H208   0.990       .  S
O167        H212   0.990       .  S
Zr168       O169   2.437       .  S
Zr168       O170   2.435       .  S
Zr168       O172   2.375       .  S
Zr168       O171   2.376       .  S
Zr168       O196   2.384       .  S
Zr168       O198   2.383       .  S
O169        H210   0.990       .  S
O169        H213   0.990       .  S
O170        H203   0.990       .  S
O171       Zr191   2.396   1_655  S
O172       Zr192   2.406       .  S
O172        H199   0.966       .  S
O173       Zr185   2.459       .  S
O173        C175   1.289       .  A
O174       Zr192   2.530   1_546  S
O174        C175   1.313       .  A
O176       Zr188   2.398   1_455  S
O176        C178   1.278       .  A
O177       Zr191   2.556   1_556  S
O177        C178   1.316       .  A
O179       Zr188   2.391       .  S
O179        C181   1.277       .  A
O180       Zr192   2.557   1_556  S
O180        C181   1.316       .  A
O182       Zr185   2.445   1_455  S
O182        C184   1.286       .  A
O183       Zr191   2.513   1_546  S
O183        C184   1.310       .  A
Zr185       O186   2.442       .  S
Zr185       O187   2.433       .  S
Zr185       O193   2.379   1_545  S
Zr185       O194   2.382   1_545  S
Zr185       O197   2.383   1_556  S
Zr185       O195   2.384   1_556  S
O186        H206   0.990       .  S
O186        H211   0.990       .  S
O187        H207   0.990       .  S
Zr188       O189   2.435       .  S
Zr188       O190   2.440       .  S
Zr188       O194   2.349       .  S
Zr188       O193   2.358       .  S
Zr188       O198   2.382   1_556  S
Zr188       O196   2.379   1_556  S
O189        H205   0.990       .  S
O190        H204   0.990       .  S
O190        H214   0.990       .  S
Zr191       O194   2.387   1_454  S
Zr191       O196   2.393   1_455  S
Zr191       O197   2.411   1_465  S
Zr192       O193   2.400   1_554  S
Zr192       O195   2.411   1_565  S
Zr192       O198   2.393       .  S
O193        H201   0.966       .  S
O196        H200   0.967   1_655  S
O197        H202   0.966   1_655  S
C215        C342   1.541       .  S
C215        C360   1.553       .  S
C215        C378   1.596       .  S
C216        C309   1.545       .  S
C216        C327   1.589       .  S
C216        C381   1.572       .  S
C217        C288   1.583       .  S
C217        C306   1.533       .  S
C217        C345   1.549       .  S
C218        C230   1.555       .  S
C218        C291   1.567       .  S
C218        C324   1.582       .  S
C218        C363   1.556       .  S
O219       Zr231   2.436   1_455  S
O219        C221   1.284       .  A
O220       Zr257   2.527       .  S
O220        C221   1.313       .  A
O222       Zr234   2.454       .  S
O222        C224   1.287       .  A
O223       Zr258   2.517       .  S
O223        C224   1.310       .  A
O225       Zr234   2.454   1_455  S
O225        C227   1.286       .  A
O226       Zr257   2.525       .  S
O226        C227   1.312       .  A
O228       Zr231   2.448       .  S
O228        C230   1.286       .  A
O229       Zr258   2.529       .  S
O229        C230   1.313       .  A
Zr231       O232   2.435       .  S
Zr231       O233   2.438       .  S
Zr231       O237   2.382       .  S
Zr231       O238   2.376       .  S
Zr231       O261   2.380       .  S
Zr231       O263   2.386       .  S
O232        H275   0.990       .  S
O233        H274   0.990       .  S
O233        H278   0.990       .  S
Zr234       O235   2.436       .  S
Zr234       O236   2.438       .  S
Zr234       O238   2.386       .  S
Zr234       O237   2.377       .  S
Zr234       O262   2.381       .  S
Zr234       O264   2.383       .  S
O235        H276   0.990       .  S
O235        H279   0.990       .  S
O236        H269   0.990       .  S
O237       Zr257   2.394   1_655  S
O238       Zr258   2.401       .  S
O238        H265   0.965       .  S
O239       Zr251   2.458       .  S
O239        C241   1.288       .  A
O240       Zr258   2.517       .  S
O240        C241   1.310       .  A
O242       Zr254   2.409   1_455  S
O242        C244   1.280       .  A
O243       Zr257   2.533       .  S
O243        C244   1.313       .  A
O245       Zr254   2.414       .  S
O245        C247   1.281       .  A
O246       Zr258   2.531       .  S
O246        C247   1.313       .  A
O248       Zr251   2.453   1_455  S
O248        C250   1.288       .  A
O249       Zr257   2.514       .  S
O249        C250   1.309       .  A
Zr251       O252   2.437       .  S
Zr251       O253   2.434       .  S
Zr251       O259   2.379       .  S
Zr251       O260   2.377       .  S
Zr251       O263   2.387       .  S
Zr251       O261   2.386       .  S
O252        H272   0.990       .  S
O252        H277   0.990       .  S
O253        H273   0.990       .  S
Zr254       O255   2.436       .  S
Zr254       O256   2.439       .  S
Zr254       O260   2.364       .  S
Zr254       O259   2.360       .  S
Zr254       O264   2.380       .  S
Zr254       O262   2.382       .  S
O255        H271   0.990       .  S
O256        H270   0.990       .  S
O256        H280   0.991       .  S
Zr257       O260   2.394   1_455  S
Zr257       O262   2.398   1_455  S
Zr257       O263   2.406   1_455  S
Zr258       O259   2.400       .  S
Zr258       O261   2.399       .  S
Zr258       O264   2.399       .  S
O259        H267   0.966       .  S
O262        H266   0.966   1_655  S
O263        H268   0.965   1_655  S
C281        C286   1.370       .  A
C281        C282   1.382       .  A
C281        N287   1.323       .  A
C282        C283   1.387       .  A
C282        H293   1.083       .  S
C283        C292   1.345       .  A
C283        C284   1.369       .  A
C284        C285   1.431       .  A
C284        N290   1.364       .  A
C285        C286   1.429       .  A
C285        H294   1.081       .  S
C286        C289   1.406       .  A
N287        C288   1.354       .  A
N287        H297   1.040       .  S
C288        C289   1.423       .  A
C289        H295   1.080       .  S
N290        C291   1.378       .  A
N290        H298   1.044       .  S
C291        C292   1.405       .  A
C292        H296   1.073       .  S
C299        C304   1.378       .  A
C299        C300   1.405       .  A
C299        N305   1.344       .  A
C300        C301   1.407       .  A
C300        H311   1.082       .  S
C301        C310   1.378       .  A
C301        C302   1.379       .  A
C302        C303   1.392       .  A
C302        N308   1.330       .  A
C303        C304   1.391       .  A
C303        H312   1.083       .  S
C304        C307   1.359       .  A
N305        C306   1.358       .  A
N305        H315   1.042       .  S
C306        C307   1.399       .  A
C307        H313   1.078       .  S
N308        C309   1.358       .  A
N308        H316   1.046       .  S
C309        C310   1.408       .  A
C310        H314   1.068       .  S
C317        C322   1.376       .  A
C317        C318   1.394       .  A
C317        N323   1.330       .  A
C318        C319   1.390       .  A
C318        H329   1.083       .  S
C319        C328   1.359       .  A
C319        C320   1.377       .  A
C320        C321   1.439       .  A
C320        N326   1.375       .  A
C321        C322   1.439       .  A
C321        H330   1.082       .  S
C322        C325   1.424       .  A
N323        C324   1.360       .  A
N323        H333   1.041       .  S
C324        C325   1.426       .  A
C325        H331   1.081       .  S
N326        C327   1.377       .  A
N326        H334   1.043       .  S
C327        C328   1.402       .  A
C328        H332   1.083       .  S
C335        C340   1.370       .  A
C335        C336   1.406       .  A
C335        N341   1.344       .  A
C336        C337   1.410       .  A
C336        H347   1.082       .  S
C337        C346   1.371       .  A
C337        C338   1.381       .  A
C338        C339   1.397       .  A
C338        N344   1.338       .  A
C339        C340   1.395       .  A
C339        H348   1.083       .  S
C340        C343   1.359       .  A
N341        C342   1.369       .  A
N341        H351   1.040       .  S
C342        C343   1.398       .  A
C343        H349   1.075       .  S
N344        C345   1.362       .  A
N344        H352   1.036       .  S
C345        C346   1.410       .  A
C346        H350   1.083       .  S
C353        C358   1.379       .  A
C353        C354   1.410       .  A
C353        N359   1.348       .  A
C354        C355   1.412       .  A
C354        H365   1.083       .  S
C355        C364   1.381       .  A
C355        C356   1.382       .  A
C356        C357   1.400       .  A
C356        N362   1.341       .  A
C357        C358   1.400       .  A
C357        H366   1.082       .  S
C358        C361   1.372       .  A
N359        C360   1.363       .  A
N359        H369   1.043       .  S
C360        C361   1.396       .  A
C361        H367   1.082       .  S
N362        C363   1.360       .  A
N362        H370   1.045       .  S
C363        C364   1.404       .  A
C364        H368   1.083       .  S
C371        C376   1.370       .  A
C371        C372   1.408       .  A
C371        N377   1.344       .  A
C372        C373   1.409       .  A
C372        H383   1.082       .  S
C373        C382   1.386       .  A
C373        C374   1.374       .  A
C374        C375   1.412       .  A
C374        N380   1.343       .  A
C375        C376   1.408       .  A
C375        H384   1.083       .  S
C376        C379   1.383       .  A
N377        C378   1.369       .  A
N377        H387   1.036       .  S
C378        C379   1.418       .  A
C379        H385   1.078       .  S
N380        C381   1.371       .  A
N380        H388   1.045       .  S
C381        C382   1.407       .  A
C382        H386   1.070       .  S
C389        C394   1.377       .  A
C389        C390   1.381       .  A
C389        N395   1.329       .  A
C390        C391   1.383       .  A
C390        H401   1.079       .  S
C391        C400   1.340       .  A
C391        C392   1.377       .  A
C392        C393   1.421       .  A
C392        N398   1.366       .  A
C393        C394   1.424       .  A
C393        H402   1.078       .  S
C394        C397   1.394       .  A
N395        C396   1.351       .  A
N395        H405   1.041       .  S
C396        C397   1.417       .  A
C397        H403   1.072       .  S
N398        C399   1.370       .  A
N398        H406   1.044       .  S
C399        C400   1.399       .  A
C400        H404   1.081       .  S
C407        C412   1.379       .  A
C407        C408   1.402       .  A
C407        N413   1.337       .  A
C408        C409   1.402       .  A
C408        H419   1.083       .  S
C409        C418   1.374       .  A
C409        C410   1.382       .  A
C410        C411   1.406       .  A
C410        N416   1.341       .  A
C411        C412   1.402       .  A
C411        H420   1.082       .  S
C412        C415   1.379       .  A
N413        C414   1.362       .  A
N413        H423   1.045       .  S
C414        C415   1.399       .  A
C415        H421   1.078       .  S
N416        C417   1.365       .  A
N416        H424   1.045       .  S
C417        C418   1.393       .  A
C418        H422   1.081       .  S
C425        C430   1.372       .  A
C425        C426   1.425       .  A
C425        N431   1.364       .  A
C426        C427   1.428       .  A
C426        H437   1.082       .  S
C427        C436   1.396       .  A
C427        C428   1.373       .  A
C428        C429   1.399       .  A
C428        N434   1.342       .  A
C429        C430   1.402       .  A
C429        H438   1.083       .  S
C430        C433   1.366       .  A
N431        C432   1.375       .  A
N431        H441   1.044       .  S
C432        C433   1.414       .  A
C433        H439   1.074       .  S
N434        C435   1.366       .  A
N434        H442   1.042       .  S
C435        C436   1.421       .  A
C436        H440   1.074       .  S
C443        C448   1.377       .  A
C443        C444   1.401       .  A
C443        N449   1.341       .  A
C444        C445   1.400       .  A
C444        H455   1.082       .  S
C445        C454   1.368       .  A
C445        C446   1.377       .  A
C446        C447   1.404       .  A
C446        N452   1.341       .  A
C447        C448   1.402       .  A
C447        H456   1.083       .  S
C448        C451   1.369       .  A
N449        C450   1.362       .  A
N449        H459   1.032       .  S
C450        C451   1.410       .  A
C451        H457   1.082       .  S
N452        C453   1.367       .  A
N452        H460   1.036       .  S
C453        C454   1.405       .  A
C454        H458   1.083       .  S
C461        C466   1.374       .  A
C461        C462   1.428       .  A
C461        N467   1.361       .  A
C462        C463   1.428       .  A
C462        H473   1.080       .  S
C463        C472   1.410       .  A
C463        C464   1.379       .  A
C464        C465   1.381       .  A
C464        N470   1.320       .  A
C465        C466   1.378       .  A
C465        H474   1.076       .  S
C466        C469   1.350       .  A
N467        C468   1.375       .  A
N467        H477   1.043       .  S
C468        C469   1.394       .  A
C469        H475   1.081       .  S
N470        C471   1.353       .  A
N470        H478   1.045       .  S
C471        C472   1.416       .  A
C472        H476   1.081       .  S
C479        C484   1.377       .  A
C479        C480   1.396       .  A
C479        N485   1.332   1_554  A
C480        C481   1.396       .  A
C480        H491   1.083   1_554  S
C481        C490   1.365   1_554  A
C481        C482   1.377       .  A
C482        C483   1.408       .  A
C482        N488   1.340   1_554  A
C483        C484   1.404       .  A
C483        H492   1.082       .  S
C484        C487   1.380   1_554  A
N485        C486   1.361       .  A
N485        H495   1.045       .  S
C486        C487   1.404       .  A
C487        H493   1.074       .  S
N488        C489   1.368       .  A
N488        H496   1.045       .  S
C489        C490   1.403       .  A
C490        H494   1.062       .  S
C497        C502   1.373       .  A
C497        C498   1.408       .  A
C497        N503   1.344       .  A
C498        C499   1.409       .  A
C498        H509   1.082       .  S
C499        C508   1.377       .  A
C499        C500   1.373       .  A
C500        C501   1.403       .  A
C500        N506   1.343       .  A
C501        C502   1.405       .  A
C501        H510   1.082       .  S
C502        C505   1.372       .  A
N503        C504   1.369       .  A
N503        H513   1.045       .  S
C504        C505   1.414       .  A
C505        H511   1.065       .  S
N506        C507   1.366       .  A
N506        H514   1.045       .  S
C507        C508   1.418       .  A
C508        H512   1.069       .  S
C515        C520   1.385       .  A
C515        C516   1.406       .  A
C515        N521   1.348       .  A
C516        C517   1.405       .  A
C516        H527   1.083       .  S
C517        C526   1.375       .  A
C517        C518   1.380       .  A
C518        C519   1.403       .  A
C518        N524   1.347       .  A
C519        C520   1.406       .  A
C519        H528   1.083       .  S
C520        C523   1.376       .  A
N521        C522   1.357       .  A
N521        H531   1.044       .  S
C522        C523   1.406       .  A
C523        H529   1.083       .  S
N524        C525   1.358       .  A
N524        H532   1.037       .  S
C525        C526   1.410       .  A
C526        H530   1.083       .  S
C533        C538   1.374       .  A
C533        C534   1.438       .  A
C533        N539   1.372       .  A
C534        C535   1.439       .  A
C534        H545   1.082       .  S
C535        C544   1.420       .  A
C535        C536   1.376       .  A
C536        C537   1.388       .  A
C536        N542   1.328       .  A
C537        C538   1.380       .  A
C537        H546   1.074       .  S
C538        C541   1.352       .  A
N539        C540   1.378       .  A
N539        H549   1.043       .  S
C540        C541   1.397       .  A
C541        H547   1.082       .  S
N542        C543   1.357       .  A
N542        H550   1.043       .  S
C543        C544   1.425       .  A
C544        H548   1.080       .  S
C551        C556   1.380       .  A
C551        C552   1.413       .  A
C551        N557   1.349       .  A
C552        C553   1.410       .  A
C552        H563   1.078       .  S
C553        C562   1.386       .  A
C553        C554   1.379       .  A
C554        C555   1.372       .  A
C554        N560   1.316       .  A
C555        C556   1.369       .  A
C555        H564   1.076       .  S
C556        C559   1.333       .  A
N557        C558   1.365       .  A
N557        H567   1.045       .  S
C558        C559   1.389       .  A
C559        H565   1.083       .  S
N560        C561   1.347       .  A
N560        H568   1.044       .  S
C561        C562   1.407       .  A
C562        H566   1.082       .  S
C569        C574   1.376       .  A
C569        C570   1.414       .  A
C569        N575   1.347       .  A
C570        C571   1.410       .  A
C570        H581   1.082       .  S
C571        C580   1.386       .  A
C571        C572   1.377       .  A
C572        C573   1.399       .  A
C572        N578   1.339       .  A
C573        C574   1.401       .  A
C573        H582   1.083       .  S
C574        C577   1.374       .  A
N575        C576   1.373       .  A
N575        H585   1.045       .  S
C576        C577   1.410       .  A
C577        H583   1.063       .  S
N578        C579   1.362       .  A
N578        H586   1.045       .  S
C579        C580   1.404       .  A
C580        H584   1.078       .  S
C587        C592   1.371       .  A
C587        C588   1.403       .  A
C587        N593   1.342       .  A
C588        C589   1.405       .  A
C588        H599   1.082       .  S
C589        C598   1.371       .  A
C589        C590   1.373       .  A
C590        C591   1.409       .  A
C590        N596   1.349       .  A
C591        C592   1.409       .  A
C591        H600   1.082       .  S
C592        C595   1.380       .  A
N593        C594   1.368       .  A
N593        H603   1.042       .  S
C594        C595   1.405       .  A
C595        H601   1.074       .  S
N596        C597   1.365       .  A
N596        H604   1.045       .  S
C597        C598   1.417       .  A
C598        H602   1.075       .  S
C605        C610   1.374       .  A
C605        C606   1.404       .  A
C605        N611   1.342       .  A
C606        C607   1.400       .  A
C606        H617   1.083       .  S
C607        C616   1.372       .  A
C607        C608   1.371       .  A
C608        C609   1.429       .  A
C608        N614   1.364       .  A
C609        C610   1.430       .  A
C609        H618   1.082       .  S
C610        C613   1.406       .  A
N611        C612   1.369       .  A
N611        H621   1.038       .  S
C612        C613   1.424       .  A
C613        H619   1.082       .  S
N614        C615   1.376       .  A
N614        H622   1.040       .  S
C615        C616   1.413       .  A
C616        H620   1.078       .  S
C623        C628   1.384       .  A
C623        C624   1.400       .  A
C623        N629   1.342       .  A
C624        C625   1.397       .  A
C624        H635   1.082       .  S
C625        C634   1.366       .  A
C625        C626   1.379       .  A
C626        C627   1.404       .  A
C626        N632   1.346       .  A
C627        C628   1.407       .  A
C627        H636   1.082       .  S
C628        C631   1.374       .  A
N629        C630   1.350       .  A
N629        H639   1.044       .  S
C630        C631   1.411       .  A
C631        H637   1.083       .  S
N632        C633   1.359       .  A
N632        H640   1.039       .  S
C633        C634   1.402       .  A
C634        H638   1.083       .  S
C641        C646   1.374       .  A
C641        C642   1.423       .  A
C641        N647   1.355       .  A
C642        C643   1.423       .  A
C642        H653   1.079       .  S
C643        C652   1.408       .  A
C643        C644   1.380       .  A
C644        C645   1.386       .  A
C644        N650   1.319       .  A
C645        C646   1.379       .  A
C645        H654   1.079       .  S
C646        C649   1.355       .  A
N647        C648   1.372       .  A
N647        H657   1.038       .  S
C648        C649   1.393       .  A
C649        H655   1.078       .  S
N650        C651   1.357       .  A
N650        H658   1.044       .  S
C651        C652   1.414       .  A
C652        H656   1.080       .  S
C659        C664   1.379       .  A
C659        C660   1.377       .  A
C659        N665   1.314       .  A
C660        C661   1.372       .  A
C660        H671   1.076       .  S
C661        C670   1.347       .  A
C661        C662   1.374       .  A
C662        C663   1.428       .  A
C662        N668   1.358       .  A
C663        C664   1.427       .  A
C663        H672   1.081       .  S
C664        C667   1.412       .  A
N665        C666   1.351       .  A
N665        H675   1.044       .  S
C666        C667   1.415       .  A
C667        H673   1.082       .  S
N668        C669   1.374       .  A
N668        H676   1.041       .  S
C669        C670   1.390       .  A
C670        H674   1.078       .  S
C677        C682   1.380       .  A
C677        C678   1.397       .  A
C677        N683   1.338   1_554  A
C678        C679   1.394       .  A
C678        H689   1.083   1_554  S
C679        C688   1.363       .  A
C679        C680   1.378       .  A
C680        C681   1.407       .  A
C680        N686   1.347       .  A
C681        C682   1.410       .  A
C681        H690   1.082       .  S
C682        C685   1.375       .  A
N683        C684   1.360       .  A
N683        H693   1.031       .  S
C684        C685   1.415   1_556  A
C685        H691   1.083       .  S
N686        C687   1.360   1_554  A
N686        H694   1.040       .  S
C687        C688   1.402   1_556  A
C688        H692   1.081   1_554  S
C695        C700   1.375       .  A
C695        C696   1.405       .  A
C695        N701   1.338       .  A
C696        C697   1.403       .  A
C696        H707   1.082       .  S
C697        C706   1.377       .  A
C697        C698   1.377       .  A
C698        C699   1.401       .  A
C698        N704   1.334       .  A
C699        C700   1.398       .  A
C699        H708   1.083       .  S
C700        C703   1.373       .  A
N701        C702   1.365       .  A
N701        H711   1.046       .  S
C702        C703   1.409       .  A
C703        H709   1.069       .  S
N704        C705   1.361       .  A
N704        H712   1.046       .  S
C705        C706   1.411       .  A
C706        H710   1.072       .  S
C713        C718   1.381       .  A
C713        C714   1.407       .  A
C713        N719   1.349       .  A
C714        C715   1.408       .  A
C714        H725   1.083       .  S
C715        C724   1.378       .  A
C715        C716   1.382       .  A
C716        C717   1.408       .  A
C716        N722   1.351       .  A
C717        C718   1.411       .  A
C717        H726   1.083       .  S
C718        C721   1.380       .  A
N719        C720   1.357       .  A
N719        H729   1.042       .  S
C720        C721   1.414       .  A
C721        H727   1.083       .  S
N722        C723   1.359       .  A
N722        H730   1.043       .  S
C723        C724   1.409       .  A
C724        H728   1.083       .  S
C731        C736   1.372       .  A
C731        C732   1.408       .  A
C731        N737   1.345       .  A
C732        C733   1.409       .  A
C732        H743   1.082       .  S
C733        C742   1.380       .  A
C733        C734   1.374       .  A
C734        C735   1.405       .  A
C734        N740   1.341       .  A
C735        C736   1.405       .  A
C735        H744   1.082       .  S
C736        C739   1.373       .  A
N737        C738   1.366       .  A
N737        H747   1.043       .  S
C738        C739   1.416       .  A
C739        H745   1.071       .  S
N740        C741   1.366       .  A
N740        H748   1.045       .  S
C741        C742   1.416       .  A
C742        H746   1.070       .  S
C749        C754   1.375       .  A
C749        C750   1.435       .  A
C749        N755   1.371       .  A
C750        C751   1.437       .  A
C750        H761   1.082       .  S
C751        C760   1.417       .  A
C751        C752   1.376       .  A
C752        C753   1.389       .  A
C752        N758   1.330       .  A
C753        C754   1.382       .  A
C753        H762   1.074       .  S
C754        C757   1.352       .  A
N755        C756   1.376       .  A
N755        H765   1.043       .  S
C756        C757   1.399       .  A
C757        H763   1.083       .  S
N758        C759   1.358       .  A
N758        H766   1.044       .  S
C759        C760   1.423       .  A
C760        H764   1.080       .  S
C767        C772   1.382       .  A
C767        C768   1.375       .  A
C767        N773   1.316       .  A
C768        C769   1.370       .  A
C768        H779   1.078       .  S
C769        C778   1.332       .  A
C769        C770   1.374       .  A
C770        C771   1.417       .  A
C770        N776   1.354       .  A
C771        C772   1.418       .  A
C771        H780   1.079       .  S
C772        C775   1.395       .  A
N773        C774   1.347       .  A
N773        H783   1.046       .  S
C774        C775   1.409       .  A
C775        H781   1.082       .  S
N776        C777   1.371       .  A
N776        H784   1.043       .  S
C777        C778   1.394       .  A
C778        H782   1.084       .  S
C785        C790   1.375       .  A
C785        C786   1.410       .  A
C785        N791   1.348       .  A
C786        C787   1.411       .  A
C786        H797   1.082       .  S
C787        C796   1.383       .  A
C787        C788   1.376       .  A
C788        C789   1.407       .  A
C788        N794   1.343       .  A
C789        C790   1.403       .  A
C789        H798   1.082       .  S
C790        C793   1.377       .  A
N791        C792   1.360       .  A
N791        H801   1.039       .  S
C792        C793   1.414       .  A
C793        H799   1.083       .  S
N794        C795   1.369       .  A
N794        H802   1.037       .  S
C795        C796   1.412       .  A
C796        H800   1.083       .  S
C803        C808   1.380       .  A
C803        C804   1.403       .  A
C803        N809   1.340       .  A
C804        C805   1.401       .  A
C804        H815   1.083       .  S
C805        C814   1.378       .  A
C805        C806   1.376       .  A
C806        C807   1.413       .  A
C806        N812   1.346       .  A
C807        C808   1.410       .  A
C807        H816   1.082       .  S
C808        C811   1.389       .  A
N809        C810   1.364       .  A
N809        H819   1.045       .  S
C810        C811   1.404       .  A
C811        H817   1.077       .  S
N812        C813   1.370       .  A
N812        H820   1.045       .  S
C813        C814   1.409       .  A
C814        H818   1.067       .  S
C821        C826   1.373       .  A
C821        C822   1.410       .  A
C821        N827   1.347       .  A
C822        C823   1.411       .  A
C822        H833   1.082       .  S
C823        C832   1.381       .  A
C823        C824   1.373       .  A
C824        C825   1.405       .  A
C824        N830   1.343       .  A
C825        C826   1.407       .  A
C825        H834   1.082       .  S
C826        C829   1.373       .  A
N827        C828   1.370       .  A
N827        H837   1.045       .  S
C828        C829   1.416       .  A
C829        H835   1.065       .  S
N830        C831   1.366       .  A
N830        H838   1.045       .  S
C831        C832   1.418       .  A
C832        H836   1.070       .  S
C839        C844   1.376       .  A
C839        C840   1.384       .  A
C839        N845   1.329       .  A
C840        C841   1.388       .  A
C840        H851   1.074       .  S
C841        C850   1.357       .  A
C841        C842   1.376       .  A
C842        C843   1.437       .  A
C842        N848   1.373       .  A
C843        C844   1.438       .  A
C843        H852   1.082   1_455  S
C844        C847   1.417       .  A
N845        C846   1.355       .  A
N845        H855   1.045       .  S
C846        C847   1.424       .  A
C847        H853   1.080       .  S
N848        C849   1.376       .  A
N848        H856   1.043       .  S
C849        C850   1.400       .  A
C850        H854   1.081       .  S
C857        C862   1.378       .  A
C857        C858   1.409       .  A
C857        N863   1.345       .  A
C858        C859   1.407       .  A
C858        H869   1.083       .  S
C859        C868   1.383       .  A
C859        C860   1.381       .  A
C860        C861   1.408       .  A
C860        N866   1.344       .  A
C861        C862   1.405       .  A
C861        H870   1.083       .  S
C862        C865   1.381       .  A
N863        C864   1.367       .  A
N863        H873   1.045       .  S
C864        C865   1.402       .  A
C865        H871   1.074       .  S
N866        C867   1.366       .  A
N866        H874   1.045       .  S
C867        C868   1.399       .  A
C868        H872   1.080       .  S
C875        C880   1.380       .  A
C875        C876   1.375       .  A
C875        N881   1.316       .  A
C876        C877   1.372       .  A
C876        H887   1.076       .  S
C877        C886   1.340       .  A
C877        C878   1.375       .  A
C878        C879   1.415       .  A
C878        N884   1.353       .  A
C879        C880   1.418       .  A
C879        H888   1.078       .  S
C880        C883   1.394       .  A
N881        C882   1.351       .  A
N881        H891   1.046       .  S
C882        C883   1.414       .  A
C883        H889   1.081       .  S
N884        C885   1.365       .  A
N884        H892   1.044       .  S
C885        C886   1.391       .  A
C886        H890   1.082       .  S
C893        C898   1.379       .  A
C893        C894   1.410       .  A
C893        N899   1.344       .  A
C894        C895   1.407       .  A
C894        H905   1.083       .  S
C895        C904   1.384       .  A
C895        C896   1.379       .  A
C896        C897   1.407       .  A
C896        N902   1.342       .  A
C897        C898   1.402       .  A
C897        H906   1.082       .  S
C898        C901   1.382       .  A
N899        C900   1.367       .  A
N899        H909   1.045       .  S
C900        C901   1.398       .  A
C901        H907   1.077       .  S
N902        C903   1.368       .  A
N902        H910   1.044       .  S
C903        C904   1.402       .  A
C904        H908   1.076       .  S
C911        C916   1.374       .  A
C911        C912   1.408       .  A
C911        N917   1.340       .  A
C912        C913   1.403       .  A
C912        H923   1.082       .  S
C913        C922   1.377       .  A
C913        C914   1.372       .  A
C914        C915   1.408       .  A
C914        N920   1.341       .  A
C915        C916   1.404       .  A
C915        H924   1.082       .  S
C916        C919   1.378       .  A
N917        C918   1.370       .  A
N917        H927   1.035       .  S
C918        C919   1.410       .  A
C919        H925   1.083       .  S
N920        C921   1.368       .  A
N920        H928   1.030       .  S
C921        C922   1.411       .  A
C922        H926   1.081       .  S
C929        C934   1.378       .  A
C929        C930   1.400       .  A
C929        N935   1.339       .  A
C930        C931   1.401       .  A
C930        H941   1.083       .  S
C931        C940   1.376       .  A
C931        C932   1.377       .  A
C932        C933   1.418       .  A
C932        N938   1.350       .  A
C933        C934   1.414       .  A
C933        H942   1.082       .  S
C934        C937   1.393       .  A
N935        C936   1.362       .  A
N935        H945   1.044       .  S
C936        C937   1.408       .  A
C937        H943   1.079       .  S
N938        C939   1.372       .  A
N938        H946   1.044       .  S
C939        C940   1.413       .  A
C940        H944   1.068       .  S
C947        C952   1.372       .  A
C947        C948   1.407       .  A
C947        N953   1.346       .  A
C948        C949   1.407       .  A
C948        H959   1.082       .  S
C949        C958   1.382       .  A
C949        C950   1.374       .  A
C950        C951   1.404       .  A
C950        N956   1.340       .  A
C951        C952   1.401       .  A
C951        H960   1.083       .  S
C952        C955   1.371       .  A
N953        C954   1.358       .  A
N953        H963   1.042       .  S
C954        C955   1.412       .  A
C955        H961   1.078       .  S
N956        C957   1.369       .  A
N956        H964   1.037       .  S
C957        C958   1.410       .  A
C958        H962   1.083       .  S
C965        C970   1.375       .  A
C965        C966   1.435       .  A
C965        N971   1.372       .  A
C966        C967   1.437       .  A
C966        H977   1.082       .  S
C967        C976   1.416       .  A
C967        C968   1.378       .  A
C968        C969   1.386       .  A
C968        N974   1.327       .  A
C969        C970   1.380       .  A
C969        H978   1.079       .  S
C970        C973   1.347       .  A
N971        C972   1.375       .  A
N971        H981   1.043       .  S
C972        C973   1.397       .  A
C973        H979   1.082       .  S
N974        C975   1.356       .  A
N974        H982   1.042       .  S
C975        C976   1.424       .  A
C976        H980   1.080       .  S
C983        C988   1.380       .  A
C983        C984   1.370       .  A
C983        N989   1.312       .  A
C984        C985   1.369       .  A
C984        H995   1.078       .  S
C985        C994   1.334       .  A
C985        C986   1.381       .  A
C986        C987   1.414       .  A
C986        N992   1.349       .  A
C987        C988   1.410       .  A
C987        H996   1.079       .  S
C988        C991   1.390       .  A
N989        C990   1.346       .  A
N989        H999   1.046       .  S
C990        C991   1.405       .  A
C991        H997   1.082       .  S
N992        C993   1.365       .  A
N992       H1000   1.045       .  S
C993        C994   1.389       .  A
C994        H998   1.082       .  S
C1001      C1006   1.376       .  A
C1001      C1002   1.410       .  A
C1001      N1007   1.344       .  A
C1002      C1003   1.407       .  A
C1002      H1013   1.082       .  S
C1003      C1012   1.384       .  A
C1003      C1004   1.375       .  A
C1004      C1005   1.404       .  A
C1004      N1010   1.340       .  A
C1005      C1006   1.404       .  A
C1005      H1014   1.082       .  S
C1006      C1009   1.378       .  A
N1007      C1008   1.366       .  A
N1007      H1017   1.045       .  S
C1008      C1009   1.412       .  A
C1009      H1015   1.073       .  S
N1010      C1011   1.368       .  A
N1010      H1018   1.045       .  S
C1011      C1012   1.402       .  A
C1012      H1016   1.078       .  S
C1019      C1024   1.384       .  A
C1019      C1020   1.409       .  A
C1019      N1025   1.349       .  A
C1020      C1021   1.408       .  A
C1020      H1031   1.082       .  S
C1021      C1030   1.376       .  A
C1021      C1022   1.377       .  A
C1022      C1023   1.400       .  A
C1022      N1028   1.345       .  A
C1023      C1024   1.401       .  A
C1023      H1032   1.083       .  S
C1024      C1027   1.370       .  A
N1025      C1026   1.358       .  A
N1025      H1035   1.044       .  S
C1026      C1027   1.405       .  A
C1027      H1033   1.084       .  S
N1028      C1029   1.363       .  A
N1028      H1036   1.034       .  S
C1029      C1030   1.412       .  A
C1030      H1034   1.082       .  S
C1037      C1042   1.375       .  A
C1037      C1038   1.439       .  A
C1037      N1043   1.377       .  A
C1038      C1039   1.442       .  A
C1038      H1049   1.082   1_455  S
C1039      C1048   1.423       .  A
C1039      C1040   1.378       .  A
C1040      C1041   1.386       .  A
C1040      N1046   1.327       .  A
C1041      C1042   1.384       .  A
C1041      H1050   1.084       .  S
C1042      C1045   1.348       .  A
N1043      C1044   1.378       .  A
N1043      H1053   1.043       .  S
C1044      C1045   1.400       .  A
C1045      H1051   1.079       .  S
N1046      C1047   1.356       .  A
N1046      H1054   1.045       .  S
C1047      C1048   1.426       .  A
C1048      H1052   1.081       .  S
C1055      C1060   1.377       .  A
C1055      C1056   1.390       .  A
C1055      N1061   1.328       .  A
C1056      C1057   1.390       .  A
C1056      H1067   1.083       .  S
C1057      C1066   1.356       .  A
C1057      C1058   1.379       .  A
C1058      C1059   1.409       .  A
C1058      N1064   1.344       .  A
C1059      C1060   1.407       .  A
C1059      H1068   1.082       .  S
C1060      C1063   1.379       .  A
N1061      C1062   1.357       .  A
N1061      H1071   1.040       .  S
C1062      C1063   1.404       .  A
C1063      H1069   1.078       .  S
N1064      C1065   1.361       .  A
N1064      H1072   1.038       .  S
C1065      C1066   1.404       .  A
C1066      H1070   1.083       .  S
C1073      C1078   1.368       .  A
C1073      C1074   1.424       .  A
C1073      N1079   1.361       .  A
C1074      C1075   1.428       .  A
C1074      H1085   1.081       .  S
C1075      C1084   1.403       .  A
C1075      C1076   1.376       .  A
C1076      C1077   1.393       .  A
C1076      N1082   1.327       .  A
C1077      C1078   1.382       .  A
C1077      H1086   1.083       .  S
C1078      C1081   1.352       .  A
N1079      C1080   1.375       .  A
N1079      H1089   1.044       .  S
C1080      C1081   1.397       .  A
C1081      H1087   1.076       .  S
N1082      C1083   1.361       .  A
N1082      H1090   1.035       .  S
C1083      C1084   1.421       .  A
C1084      H1088   1.082       .  S
C1091      C1096   1.372       .  A
C1091      C1092   1.396       .  A
C1091      N1097   1.332       .  A
C1092      C1093   1.396       .  A
C1092      H1103   1.083       .  S
C1093      C1102   1.369       .  A
C1093      C1094   1.382       .  A
C1094      C1095   1.411       .  A
C1094      N1100   1.340       .  A
C1095      C1096   1.404       .  A
C1095      H1104   1.083       .  S
C1096      C1099   1.379       .  A
N1097      C1098   1.353       .  A
N1097      H1107   1.039       .  S
C1098      C1099   1.413       .  A
C1099      H1105   1.076       .  S
N1100      C1101   1.363       .  A
N1100      H1108   1.045       .  S
C1101      C1102   1.403       .  A
C1102      H1106   1.070       .  S
C1109      C1114   1.368       .  A
C1109      C1110   1.410       .  A
C1109      N1115   1.348       .  A
C1110      C1111   1.412       .  A
C1110      H1121   1.082       .  S
C1111      C1120   1.379       .  A
C1111      C1112   1.372       .  A
C1112      C1113   1.412       .  A
C1112      N1118   1.349       .  A
C1113      C1114   1.409       .  A
C1113      H1122   1.082       .  S
C1114      C1117   1.378       .  A
N1115      C1116   1.373       .  A
N1115      H1125   1.040       .  S
C1116      C1117   1.418       .  A
C1117      H1123   1.073       .  S
N1118      C1119   1.370       .  A
N1118      H1126   1.033       .  S
C1119      C1120   1.419       .  A
C1120      H1124   1.083       .  S
C1127      C1132   1.379       .  A
C1127      C1128   1.400       .  A
C1127      N1133   1.338       .  A
C1128      C1129   1.399       .  A
C1128      H1139   1.083       .  S
C1129      C1138   1.367       .  A
C1129      C1130   1.385       .  A
C1130      C1131   1.408       .  A
C1130      N1136   1.345       .  A
C1131      C1132   1.405       .  A
C1131      H1140   1.082       .  S
C1132      C1135   1.378       .  A
N1133      C1134   1.354       .  A
N1133      H1143   1.045       .  S
C1134      C1135   1.403       .  A
C1135      H1141   1.079       .  S
N1136      C1137   1.358       .  A
N1136      H1144   1.045       .  S
C1137      C1138   1.402       .  A
C1138      H1142   1.083       .  S
